# generated using pymatgen
data_ZnH28C27N5O8
_symmetry_space_group_name_H-M   'P 1'
_cell_length_a   11.30479025
_cell_length_b   17.49595710
_cell_length_c   19.69880543
_cell_angle_alpha   88.83775704
_cell_angle_beta   89.65606331
_cell_angle_gamma   85.38969543
_symmetry_Int_Tables_number   1
_chemical_formula_structural   ZnH28C27N5O8
_chemical_formula_sum   'Zn2 H56 C54 N10 O16'
_cell_volume   3882.74708075
_cell_formula_units_Z   2
loop_
 _symmetry_equiv_pos_site_id
 _symmetry_equiv_pos_as_xyz
  1  'x, y, z'
loop_
 _atom_site_type_symbol
 _atom_site_label
 _atom_site_symmetry_multiplicity
 _atom_site_fract_x
 _atom_site_fract_y
 _atom_site_fract_z
 _atom_site_occupancy
  C  C0  1  0.40322125  0.90462938  0.31365117  1
  C  C1  1  0.51263300  0.86275243  0.20963600  1
  C  C2  1  0.52768975  0.86963577  0.13916365  1
  C  C3  1  0.44190150  0.90902132  0.09774197  1
  C  C4  1  0.41100775  0.90102183  0.24171483  1
  C  C5  1  0.44762050  0.90108697  0.02663508  1
  C  C6  1  0.60687200  0.81255377  0.24756283  1
  C  C7  1  0.34385875  0.94839333  0.12877740  1
  C  C8  1  0.32406950  0.94261315  0.19932578  1
  C  C9  1  0.35327650  0.69863333  0.32961150  1
  C  C10  1  0.21210450  0.97485962  0.22491833  1
  C  C11  1  0.68209150  0.59795567  0.34703467  1
  C  C12  1  0.81626130  0.58114917  0.35152900  1
  C  C13  1  0.61640150  0.53363450  0.38023017  1
  C  C14  1  0.30292100  0.23369683  0.30456800  1
  C  C15  1  0.15968075  0.22680617  0.22001933  1
  C  C16  1  0.54824100  0.07791167  0.26742167  1
  C  C17  1  0.27452775  0.20283700  0.24193650  1
  C  C18  1  0.45069125  0.09174183  0.37138433  1
  C  C19  1  0.44363975  0.17245400  0.37682367  1
  C  C20  1  0.53249925  0.77990033  0.72654050  1
  C  C21  1  0.45633000  0.80669403  0.61046133  1
  C  C22  1  0.52530125  0.79428033  0.79627850  1
  C  C23  1  0.44752775  0.81803703  0.68130367  1
  C  C24  1  0.63454250  0.72514150  0.70296417  1
  C  C25  1  0.63446975  0.86175177  0.46335400  1
  C  C26  1  0.76153480  0.86086580  0.46380167  1
  C  C27  1  0.99245355  0.86555378  0.46528650  1
  C  C28  1  0.86797443  0.86251425  0.46424183  1
  C  C29  1  0.42402400  0.65674483  0.43352733  1
  C  C30  1  0.33385225  0.64555317  0.66590467  1
  C  C31  1  0.35016350  0.86418577  0.71024567  1
  C  C32  1  0.35018175  0.88016700  0.77986583  1
  C  C33  1  0.23800825  0.89214822  0.67221000  1
  C  C34  1  0.22581750  0.86654855  0.46698917  1
  C  C35  1  0.09883750  0.86735148  0.46618517  1
  C  C36  1  0.35449800  0.64328433  0.54717100  1
  C  C37  1  0.43777750  0.57709233  0.42638867  1
  C  C38  1  0.44884175  0.29011717  0.45081417  1
  C  C39  1  0.35149475  0.56256733  0.53868700  1
  C  C40  1  0.40038375  0.52882800  0.47889100  1
  C  C41  1  0.41395625  0.44429900  0.46991050  1
  C  C42  1  0.19765725  0.49214383  0.57472150  1
  C  C43  1  0.12205300  0.49145383  0.63960283  1
  C  C44  1  0.01120650  0.44841333  0.63061883  1
  C  C45  1  0.48574200  0.15464300  0.49656317  1
  C  C46  1  0.64705350  0.18644967  0.55754017  1
  C  C47  1  0.71195360  0.11070117  0.58248383  1
  C  C48  1  0.83811965  0.12148200  0.60571667  1
  C  C49  1  0.46087000  0.20515050  0.44084133  1
  C  C50  1  0.46344400  0.07675517  0.49128133  1
  C  C51  1  0.38536825  0.04616083  0.59481550  1
  C  C52  1  0.43916725  0.84761673  0.82314583  1
  C  C53  1  0.44221750  0.86706847  0.89220250  1
  H  H54  1  0.60667400  0.84160065  0.11621038  1
  H  H55  1  0.65402675  0.84585200  0.28001600  1
  H  H56  1  0.56499625  0.76811933  0.27805183  1
  H  H57  1  0.67212300  0.78210317  0.21304383  1
  H  H58  1  0.65780025  0.65273533  0.37297650  1
  H  H59  1  0.37118500  0.64560767  0.29990450  1
  H  H60  1  0.28467775  0.97802332  0.10027340  1
  H  H61  1  0.35421425  0.74307983  0.29652433  1
  H  H62  1  0.14834850  0.99536010  0.18446113  1
  H  H63  1  0.17111225  0.93238442  0.25841550  1
  H  H64  1  0.27079475  0.70045500  0.35008117  1
  H  H65  1  0.86046943  0.62851200  0.32619883  1
  H  H66  1  0.65586525  0.60481000  0.29282133  1
  H  H67  1  0.64635175  0.47839133  0.35632600  1
  H  H68  1  0.84434683  0.52669617  0.32582467  1
  H  H69  1  0.28606850  0.29726283  0.30185033  1
  H  H70  1  0.15061400  0.28975350  0.20935533  1
  H  H71  1  0.51541200  0.11700167  0.22536683  1
  H  H72  1  0.62003500  0.10407400  0.29519800  1
  H  H73  1  0.58901425  0.02484733  0.24404867  1
  H  H74  1  0.24868275  0.21532383  0.34179600  1
  H  H75  1  0.33872450  0.21975817  0.20234083  1
  H  H76  1  0.09147325  0.21237083  0.25820583  1
  H  H77  1  0.14006750  0.19784117  0.17206137  1
  H  H78  1  0.22527875  0.02177950  0.25538333  1
  H  H79  1  0.28255150  0.14510667  0.24562183  1
  H  H80  1  0.60044875  0.67437333  0.67926317  1
  H  H81  1  0.68913200  0.75428517  0.66493917  1
  H  H82  1  0.69348425  0.70336767  0.74518850  1
  H  H83  1  0.22577250  0.86432355  0.62666817  1
  H  H84  1  0.15873150  0.88335212  0.70411550  1
  H  H85  1  0.23667250  0.95136937  0.66337933  1
  H  H86  1  0.33469675  0.68994100  0.70511067  1
  H  H87  1  0.42304375  0.61357333  0.66603617  1
  H  H88  1  0.95727160  0.47373200  0.58761517  1
  H  H89  1  0.95667062  0.45260617  0.67768767  1
  H  H90  1  0.66551300  0.23267617  0.59296133  1
  H  H91  1  0.64170100  0.52658350  0.43501133  1
  H  H92  1  0.84439117  0.57692800  0.40551933  1
  H  H93  1  0.26461950  0.60820350  0.68284467  1
  H  H94  1  0.20943550  0.43835850  0.55703250  1
  H  H95  1  0.14749775  0.52914800  0.53599067  1
  H  H96  1  0.17537525  0.46397400  0.68208833  1
  H  H97  1  0.09404625  0.55141483  0.65366117  1
  H  H98  1  0.03646950  0.38689700  0.62099933  1
  H  H99  1  0.68290450  0.20427300  0.50718533  1
  H  H100  1  0.66237150  0.08680683  0.62582800  1
  H  H101  1  0.71584100  0.06873567  0.54075117  1
  H  H102  1  0.88976100  0.14710883  0.56416367  1
  H  H103  1  0.88326030  0.06495633  0.62059750  1
  H  H104  1  0.83607172  0.15924033  0.65049183  1
  H  H105  1  0.37693775  0.10714183  0.60991117  1
  H  H106  1  0.29915600  0.03004883  0.57519000  1
  H  H107  1  0.40738325  0.01273567  0.64205750  1
  H  H108  1  0.58941425  0.76383700  0.82981133  1
  H  H109  1  0.27768275  0.91725485  0.80040517  1
  N  N110  1  0.42789050  0.33946000  0.39755767  1
  N  N111  1  0.39772500  0.68703967  0.49533683  1
  N  N112  1  0.45153675  0.31996017  0.51403000  1
  N  N113  1  0.43561075  0.39531533  0.52343150  1
  N  N114  1  0.41045775  0.41460750  0.40685983  1
  N  N115  1  0.44570050  0.04633667  0.42896000  1
  N  N116  1  0.53417500  0.85350985  0.99824650  1
  N  N117  1  0.53157950  0.83696883  0.93275350  1
  N  N118  1  0.35988800  0.93317902  0.98569300  1
  N  N119  1  0.35754825  0.91682500  0.91992350  1
  O  O120  1  0.48067725  0.87198625  0.35512733  1
  O  O121  1  0.44229550  0.70559583  0.37902683  1
  O  O122  1  0.33094650  0.95250363  0.34593500  1
  O  O123  1  0.49267725  0.54701317  0.36876200  1
  O  O124  1  0.42615500  0.21790183  0.31856650  1
  O  O125  1  0.45103500  0.05858833  0.30813133  1
  O  O126  1  0.51613450  0.74886567  0.58247267  1
  O  O127  1  0.39943525  0.84872345  0.56481133  1
  O  O128  1  0.57064700  0.92707467  0.46306817  1
  O  O129  1  0.58142150  0.79838300  0.45989800  1
  O  O130  1  0.27932075  0.92936447  0.47465983  1
  O  O131  1  0.28986000  0.80150317  0.46319683  1
  O  O132  1  0.30287100  0.68154267  0.60276067  1
  O  O133  1  0.30999775  0.51729283  0.59076367  1
  O  O134  1  0.52257300  0.18131817  0.55808267  1
  O  O135  1  0.47686975  0.02824617  0.54746833  1
  Zn  Zn136  1  0.41981250  0.93559362  0.42626717  1
  Zn  Zn137  1  0.43674575  0.79338217  0.50425750  1
