# generated using pymatgen
data_ZnH10C17SN4O9
_symmetry_space_group_name_H-M   'P 1'
_cell_length_a   10.54638735
_cell_length_b   11.41490883
_cell_length_c   17.73501341
_cell_angle_alpha   88.49560346
_cell_angle_beta   88.51306236
_cell_angle_gamma   89.48148908
_symmetry_Int_Tables_number   1
_chemical_formula_structural   ZnH10C17SN4O9
_chemical_formula_sum   'Zn2 H20 C34 S2 N8 O18'
_cell_volume   2133.51878653
_cell_formula_units_Z   2
loop_
 _symmetry_equiv_pos_site_id
 _symmetry_equiv_pos_as_xyz
  1  'x, y, z'
loop_
 _atom_site_type_symbol
 _atom_site_label
 _atom_site_symmetry_multiplicity
 _atom_site_fract_x
 _atom_site_fract_y
 _atom_site_fract_z
 _atom_site_occupancy
  C  C0  1  0.86358583  0.24485127  0.86862132  1
  C  C1  1  0.83138033  0.23973885  0.78851967  1
  C  C2  1  0.71839502  0.18064793  0.76667856  1
  C  C3  1  0.64675467  0.11902602  0.82196642  1
  C  C4  1  0.68613250  0.11906622  0.89661944  1
  C  C5  1  0.76814610  0.20484163  0.92157329  1
  C  C6  1  0.67497300  0.18042910  0.69221456  1
  C  C7  1  0.64502667  0.02777848  0.94533482  1
  C  C8  1  0.75976660  0.23004942  0.99591140  1
  C  C9  1  0.73117398  0.92233450  0.94391731  1
  C  C10  1  0.54863283  0.19099947  0.55542267  1
  C  C11  1  0.38303950  0.15458813  0.45445422  1
  C  C12  1  0.50742567  0.18832010  0.47705578  1
  C  C13  1  0.59621250  0.22897480  0.42434644  1
  C  C14  1  0.55955867  0.24365010  0.34926667  1
  C  C15  1  0.43720217  0.21697513  0.32034056  1
  C  C16  1  0.66699900  0.24182152  0.29658800  1
  C  C17  1  0.68158333  0.11163870  0.27900511  1
  C  C18  1  0.43014617  0.22277988  0.23225278  1
  C  C19  1  0.34491600  0.16915353  0.37437511  1
  C  C20  1  0.60618100  0.40763733  0.10044211  1
  C  C21  1  0.60586633  0.53203533  0.11152167  1
  C  C22  1  0.92627617  0.30820650  0.15214800  1
  C  C23  1  0.97416494  0.10080233  0.15398567  1
  C  C24  1  0.19540300  0.05299138  0.13649889  1
  C  C25  1  0.03875050  0.33026917  0.11644289  1
  C  C26  1  0.28269750  0.07355965  0.07830344  1
  C  C27  1  0.25326650  0.27704032  0.09894500  1
  C  C28  1  0.13075267  0.24789582  0.12055311  1
  C  C29  1  0.10079750  0.13403037  0.14198078  1
  C  C30  1  0.60322117  0.97025083  0.12116989  1
  C  C31  1  0.60196967  0.63619483  0.11942244  1
  C  C32  1  0.59563517  0.75838583  0.12771556  1
  C  C33  1  0.59566833  0.86337883  0.12344711  1
  H  H34  1  0.95469778  0.28430740  0.88604460  1
  H  H35  1  0.88699767  0.28066817  0.74680678  1
  H  H36  1  0.54403800  0.01638926  0.94427283  1
  H  H37  1  0.73040795  0.87889250  0.88742404  1
  H  H38  1  0.83179980  0.94764767  0.96221968  1
  H  H39  1  0.68941250  0.86186567  0.98724875  1
  H  H40  1  0.41915717  0.52082383  0.21103722  1
  H  H41  1  0.74622923  0.05204092  0.31154667  1
  H  H42  1  0.59728583  0.05989635  0.26120811  1
  H  H43  1  0.73113060  0.12387053  0.23376578  1
  H  H44  1  0.63262533  0.31667083  0.26121144  1
  H  H45  1  0.75866307  0.27201453  0.30759733  1
  H  H46  1  0.32197283  0.12210115  0.49708889  1
  H  H47  1  0.25379900  0.14183583  0.35854922  1
  H  H48  1  0.87803717  0.37331383  0.11485578  1
  H  H49  1  0.67451350  0.04321623  0.00098056  1
  H  H50  1  0.05598400  0.40962100  0.08104167  1
  H  H51  1  0.33297683  0.99378117  0.09518100  1
  H  H52  1  0.87566717  0.80747283  0.06253100  1
  H  H53  1  0.18832717  0.97006717  0.16924433  1
  N  N54  1  0.60046433  0.09217543  0.66815411  1
  N  N55  1  0.53800517  0.09623245  0.60055411  1
  N  N56  1  0.68933600  0.27374983  0.64558200  1
  N  N57  1  0.52402600  0.06741157  0.80590633  1
  N  N58  1  0.62532750  0.27884408  0.57827189  1
  N  N59  1  0.73011285  0.25006952  0.44479711  1
  N  N60  1  0.88470192  0.19454900  0.16531889  1
  N  N61  1  0.32938017  0.18634387  0.06773000  1
  O  O62  1  0.41873367  0.13082478  0.81380961  1
  O  O63  1  0.51672050  0.95471783  0.80990257  1
  O  O64  1  0.41783017  0.44073000  0.20179778  1
  O  O65  1  0.81342563  0.16291643  0.44591356  1
  O  O66  1  0.77253195  0.35365267  0.42993256  1
  O  O67  1  0.99166092  0.87483683  0.21252544  1
  O  O68  1  0.68880750  0.34928633  0.14258233  1
  O  O69  1  0.51238333  0.34624933  0.06766522  1
  O  O70  1  0.70929620  0.02178131  0.13723644  1
  O  O71  1  0.52146967  0.03385158  0.08155111  1
  O  O72  1  0.65395267  0.21084215  0.03675444  1
  O  O73  1  0.52807383  0.21238047  0.17594867  1
  O  O74  1  0.42751367  0.13218850  0.19455133  1
  O  O75  1  0.85364438  0.19694158  0.03402000  1
  O  O76  1  0.31969417  0.50739667  0.05692667  1
  O  O77  1  0.18193983  0.48182017  0.18413267  1
  O  O78  1  0.84029858  0.86657483  0.09458689  1
  O  O79  1  0.06516900  0.90602450  0.05887300  1
  S  S80  1  0.29603333  0.42442383  0.13604867  1
  S  S81  1  0.95506928  0.94096450  0.12748000  1
  Zn  Zn82  1  0.72833700  0.18926943  0.12552656  1
  Zn  Zn83  1  0.50205317  0.18332470  0.09493056  1
