# generated using pymatgen
data_Zn2H38C32N5O14F
_symmetry_space_group_name_H-M   'P 1'
_cell_length_a   11.41930890
_cell_length_b   12.59526382
_cell_length_c   13.40577566
_cell_angle_alpha   87.73461004
_cell_angle_beta   85.19889441
_cell_angle_gamma   84.83675864
_symmetry_Int_Tables_number   1
_chemical_formula_structural   Zn2H38C32N5O14F
_chemical_formula_sum   'Zn2 H38 C32 N5 O14 F1'
_cell_volume   1912.58569408
_cell_formula_units_Z   1
loop_
 _symmetry_equiv_pos_site_id
 _symmetry_equiv_pos_as_xyz
  1  'x, y, z'
loop_
 _atom_site_type_symbol
 _atom_site_label
 _atom_site_symmetry_multiplicity
 _atom_site_fract_x
 _atom_site_fract_y
 _atom_site_fract_z
 _atom_site_occupancy
  C  C0  1  0.02579766  0.10443752  0.49654767  1
  C  C1  1  0.07018887  0.17815192  0.42924550  1
  C  C2  1  0.07675975  0.29101400  0.45723967  1
  C  C3  1  0.08099527  0.19734712  0.25666233  1
  C  C4  1  0.11670158  0.13287315  0.16361428  1
  C  C5  1  0.30108075  0.60177800  0.49342483  1
  C  C6  1  0.38952050  0.50629333  0.27576933  1
  C  C7  1  0.07794655  0.62741700  0.29467867  1
  C  C8  1  0.07605040  0.62057017  0.18749187  1
  C  C9  1  0.01903049  0.65387717  0.64463500  1
  C  C10  1  0.07438730  0.61504700  0.09756998  1
  C  C11  1  0.43048350  0.62841133  0.49051267  1
  C  C12  1  0.07180732  0.60794783  0.00584564  1
  C  C13  1  0.49702000  0.57106667  0.58011533  1
  C  C14  1  0.49192600  0.59471783  0.38379967  1
  C  C15  1  0.67182525  0.39938000  0.33409200  1
  C  C16  1  0.77240125  0.44901717  0.62489017  1
  C  C17  1  0.66265850  0.65520900  0.46469267  1
  C  C18  1  0.63509125  0.57904950  0.55812000  1
  C  C19  1  0.63254675  0.60048817  0.36808383  1
  C  C20  1  0.63331250  0.63540600  0.19186403  1
  C  C21  1  0.34082400  0.89600783  0.57365600  1
  C  C22  1  0.02229044  0.98990267  0.47519400  1
  C  C23  1  0.44364375  0.74908583  0.49409817  1
  C  C24  1  0.79146375  0.68332433  0.45691333  1
  C  C25  1  0.57875050  0.76237650  0.47503400  1
  C  C26  1  0.64948800  0.80911533  0.64146667  1
  C  C27  1  0.49976775  0.39869000  0.67834100  1
  C  C28  1  0.34624400  0.61568600  0.71656483  1
  C  C29  1  0.01757444  0.66661233  0.75154900  1
  C  C30  1  0.01929363  0.68577817  0.94869250  1
  C  C31  1  0.01725064  0.67476050  0.84139683  1
  F  F32  1  0.97304825  0.76863733  0.98600717  1
  H  H33  1  0.34049600  0.43586650  0.27763167  1
  H  H34  1  0.12398113  0.27223733  0.24434833  1
  H  H35  1  0.05980038  0.06688867  0.16308013  1
  H  H36  1  0.10529230  0.18321895  0.09479987  1
  H  H37  1  0.21065263  0.09975213  0.16231690  1
  H  H38  1  0.44912100  0.50777950  0.20643800  1
  H  H39  1  0.49727475  0.41864000  0.52356867  1
  H  H40  1  0.57580075  0.33972833  0.66034950  1
  H  H41  1  0.32241675  0.57641933  0.27794067  1
  H  H42  1  0.45562825  0.66017600  0.33318033  1
  H  H43  1  0.54076600  0.66325400  0.17866152  1
  H  H44  1  0.62517900  0.40609000  0.26515200  1
  H  H45  1  0.61674100  0.36973800  0.39840800  1
  H  H46  1  0.74922875  0.34039633  0.32168600  1
  H  H47  1  0.81139825  0.36622900  0.61542200  1
  H  H48  1  0.98295900  0.21651950  0.26459483  1
  H  H49  1  0.99921700  0.12810493  0.57265117  1
  H  H50  1  0.79091250  0.51098200  0.31230767  1
  H  H51  1  0.66326525  0.61549983  0.62359550  1
  H  H52  1  0.84716000  0.49863700  0.62310850  1
  H  H53  1  0.65213775  0.54924200  0.18148493  1
  H  H54  1  0.69058500  0.67117400  0.13174422  1
  H  H55  1  0.25222593  0.89519383  0.54595600  1
  H  H56  1  0.32951550  0.93301133  0.64772400  1
  H  H57  1  0.39642775  0.78837067  0.43077633  1
  H  H58  1  0.39585500  0.94507600  0.52189200  1
  H  H59  1  0.58624200  0.80100317  0.39953217  1
  H  H60  1  0.58797525  0.91732450  0.52637950  1
  H  H61  1  0.73452275  0.75843017  0.64000783  1
  H  H62  1  0.42129200  0.35796567  0.70500667  1
  H  H63  1  0.51887550  0.44833583  0.74036750  1
  H  H64  1  0.30513850  0.54464600  0.69716300  1
  H  H65  1  0.34828075  0.61346400  0.79915167  1
  H  H66  1  0.11226947  0.53576250  0.97130417  1
  H  H67  1  0.72115100  0.45444350  0.69885850  1
  H  H68  1  0.28664687  0.68685600  0.69838200  1
  H  H69  1  0.57706525  0.77268733  0.68624517  1
  H  H70  1  0.66493550  0.88141033  0.67897083  1
  N  N71  1  0.07440732  0.39767417  0.48818500  1
  N  N72  1  0.46971775  0.45958450  0.58803767  1
  N  N73  1  0.71339725  0.50026500  0.35778400  1
  N  N74  1  0.02504824  0.88166583  0.44920267  1
  N  N75  1  0.62046375  0.83919400  0.53968867  1
  O  O76  1  0.45615225  0.49612850  0.35951783  1
  O  O77  1  0.12771648  0.14201042  0.34011917  1
  O  O78  1  0.21279533  0.66950000  0.47085783  1
  O  O79  1  0.27091253  0.50359583  0.50058300  1
  O  O80  1  0.10408435  0.54169000  0.34871033  1
  O  O81  1  0.05688348  0.56132183  0.60821550  1
  O  O82  1  0.69966825  0.47739550  0.54590450  1
  O  O83  1  0.66232300  0.67035683  0.28498100  1
  O  O84  1  0.88225725  0.61631617  0.47244267  1
  O  O85  1  0.04726297  0.71789183  0.33828183  1
  O  O86  1  0.39477000  0.79196200  0.58612917  1
  O  O87  1  0.82050625  0.78141450  0.44649017  1
  O  O88  1  0.99625475  0.73658833  0.58433267  1
  O  O89  1  0.46379950  0.62256800  0.67375083  1
  Zn  Zn90  1  0.13089790  0.54355467  0.48178717  1
  Zn  Zn91  1  0.97497625  0.73410500  0.46821100  1
