# generated using pymatgen
data_ZnH25C33N5O11
_symmetry_space_group_name_H-M   'P 1'
_cell_length_a   15.77089317
_cell_length_b   16.08590132
_cell_length_c   23.56579942
_cell_angle_alpha   91.18082572
_cell_angle_beta   90.71369030
_cell_angle_gamma   92.99359209
_symmetry_Int_Tables_number   1
_chemical_formula_structural   ZnH25C33N5O11
_chemical_formula_sum   'Zn2 H50 C66 N10 O22'
_cell_volume   5968.41048405
_cell_formula_units_Z   2
loop_
 _symmetry_equiv_pos_site_id
 _symmetry_equiv_pos_as_xyz
  1  'x, y, z'
loop_
 _atom_site_type_symbol
 _atom_site_label
 _atom_site_symmetry_multiplicity
 _atom_site_fract_x
 _atom_site_fract_y
 _atom_site_fract_z
 _atom_site_occupancy
  C  C0  1  0.59100800  0.73249400  0.94203625  1
  C  C1  1  0.59027450  0.74206650  0.75712150  1
  C  C2  1  0.60890400  0.80941195  0.91571750  1
  C  C3  1  0.61086150  0.81423963  0.85617942  1
  C  C4  1  0.63318400  0.89826605  0.83259370  1
  C  C5  1  0.59139200  0.74023475  0.82159903  1
  C  C6  1  0.82619338  0.73154425  0.80097065  1
  C  C7  1  0.84294970  0.71658675  0.70497475  1
  C  C8  1  0.74868550  0.33693475  0.76642925  1
  C  C9  1  0.57409100  0.65935400  0.90883175  1
  C  C10  1  0.57337125  0.66324750  0.84947727  1
  C  C11  1  0.65007625  0.30352675  0.68845575  1
  C  C12  1  0.93345462  0.71392025  0.70004375  1
  C  C13  1  0.66603550  0.21653050  0.68424675  1
  C  C14  1  0.80772647  0.16236825  0.69633875  1
  C  C15  1  0.36765725  0.73098900  0.68132375  1
  C  C16  1  0.27850200  0.72366275  0.68397400  1
  C  C17  1  0.27851550  0.61545025  0.74853525  1
  C  C18  1  0.21634400  0.55781700  0.77904325  1
  C  C19  1  0.65599600  0.91754510  0.65040150  1
  C  C20  1  0.83671778  0.76211550  0.61127500  1
  C  C21  1  0.92469992  0.76099550  0.60560400  1
  C  C22  1  0.97545425  0.74051750  0.65100525  1
  C  C23  1  0.93800965  0.73233950  0.51174425  1
  C  C24  1  0.99172480  0.75418450  0.46130875  1
  C  C25  1  0.60886500  0.75106850  0.53630350  1
  C  C26  1  0.66206475  0.80948047  0.44046000  1
  C  C27  1  0.71455800  0.88224595  0.46239400  1
  C  C28  1  0.61185825  0.75252350  0.47500275  1
  C  C29  1  0.60765000  0.73698000  0.35435875  1
  C  C30  1  0.65924600  0.79991600  0.38054650  1
  C  C31  1  0.55376600  0.58133225  0.64431425  1
  C  C32  1  0.54676625  0.28034625  0.60839875  1
  C  C33  1  0.59269800  0.33422350  0.64841450  1
  C  C34  1  0.58179300  0.42303650  0.64796575  1
  C  C35  1  0.57124475  0.49625975  0.64641400  1
  C  C36  1  0.56045750  0.69073200  0.44565875  1
  C  C37  1  0.55820350  0.68300600  0.38686550  1
  C  C38  1  0.55501050  0.19205350  0.61192250  1
  C  C39  1  0.61630700  0.16263775  0.64808250  1
  C  C40  1  0.62788175  0.07481825  0.64819450  1
  C  C41  1  0.63874175  0.00206875  0.64908550  1
  C  C42  1  0.27449125  0.79016650  0.59500000  1
  C  C43  1  0.36502500  0.78832650  0.59119500  1
  C  C44  1  0.23011950  0.75533375  0.64050750  1
  C  C45  1  0.14151475  0.75120275  0.64277000  1
  C  C46  1  0.06380625  0.74624300  0.64654600  1
  C  C47  1  0.37664800  0.78008175  0.48966025  1
  C  C48  1  0.44140725  0.26578325  0.52902375  1
  C  C49  1  0.43618400  0.08423300  0.59960300  1
  C  C50  1  0.53816800  0.76686100  0.26707200  1
  C  C51  1  0.59458200  0.72419700  0.17682000  1
  C  C52  1  0.53411600  0.76614400  0.20817200  1
  C  C53  1  0.53039800  0.76955600  0.02942600  1
  C  C54  1  0.53173600  0.77292000  0.08925200  1
  C  C55  1  0.59302200  0.72731200  0.11733600  1
  C  C56  1  0.65109000  0.68724400  0.02691500  1
  C  C57  1  0.65335000  0.68529000  0.08597000  1
  C  C58  1  0.66107400  0.68787400  0.26468200  1
  C  C59  1  0.65674000  0.67983800  0.20504000  1
  C  C60  1  0.71535200  0.63481800  0.17254800  1
  C  C61  1  0.77159200  0.57946600  0.19557200  1
  C  C62  1  0.71453800  0.64113800  0.11367000  1
  C  C63  1  0.47217600  0.80902190  0.18065800  1
  C  C64  1  0.47171600  0.81594243  0.12193600  1
  C  C65  1  0.41457400  0.87063830  0.09948800  1
  H  H66  1  0.81286560  0.79864375  0.79606375  1
  H  H67  1  0.62237950  0.86051330  0.93931813  1
  H  H68  1  0.89008130  0.72761825  0.81298940  1
  H  H69  1  0.66965725  0.42151600  0.73334100  1
  H  H70  1  0.76771025  0.39077650  0.79485650  1
  H  H71  1  0.80505393  0.32357300  0.74172700  1
  H  H72  1  0.97060917  0.69289150  0.73502800  1
  H  H73  1  0.82837447  0.62421350  0.75917675  1
  H  H74  1  0.79082125  0.70845600  0.83511135  1
  H  H75  1  0.55861150  0.59941600  0.92878965  1
  H  H76  1  0.55898750  0.60471550  0.82614730  1
  H  H77  1  0.73003100  0.28918950  0.79119175  1
  H  H78  1  0.70425650  0.14649725  0.75546125  1
  H  H79  1  0.83831312  0.13252825  0.72314525  1
  H  H80  1  0.59707200  0.01842400  0.82552815  1
  H  H81  1  0.84334830  0.22207150  0.68767000  1
  H  H82  1  0.39975425  0.71019425  0.71651000  1
  H  H83  1  0.32654450  0.63483300  0.77758300  1
  H  H84  1  0.16548350  0.53533750  0.74920450  1
  H  H85  1  0.24748625  0.50165700  0.79449850  1
  H  H86  1  0.18972000  0.59288225  0.81506782  1
  H  H87  1  0.30469800  0.57718300  0.71332400  1
  H  H88  1  0.80277965  0.77959325  0.57541125  1
  H  H89  1  0.87164893  0.74017425  0.49884300  1
  H  H90  1  0.98368020  0.82039577  0.44952925  1
  H  H91  1  0.83210142  0.93630608  0.46237500  1
  H  H92  1  0.69344800  0.84037132  0.35503200  1
  H  H93  1  0.94670635  0.66533450  0.52236750  1
  H  H94  1  0.52164775  0.64587325  0.46832900  1
  H  H95  1  0.97400398  0.71055175  0.42556775  1
  H  H96  1  0.51984200  0.63698200  0.36764200  1
  H  H97  1  0.80164480  0.12769525  0.66032350  1
  H  H98  1  0.53751425  0.10558750  0.54036475  1
  H  H99  1  0.23864700  0.81627078  0.56116000  1
  H  H100  1  0.38512075  0.88383798  0.53912875  1
  H  H101  1  0.41192225  0.79776825  0.45967550  1
  H  H102  1  0.31458950  0.79325225  0.47779600  1
  H  H103  1  0.38018175  0.71108400  0.49391150  1
  H  H104  1  0.05857575  0.74615950  0.47254775  1
  H  H105  1  0.49601950  0.38096650  0.56417425  1
  H  H106  1  0.40848025  0.30755850  0.50084425  1
  H  H107  1  0.39516750  0.23321300  0.55224525  1
  H  H108  1  0.47406500  0.22491550  0.50274900  1
  H  H109  1  0.41233425  0.03565350  0.56817225  1
  H  H110  1  0.38506075  0.12692100  0.60847725  1
  H  H111  1  0.45086225  0.05739375  0.63337275  1
  H  H112  1  0.89125975  0.54371800  0.19390000  1
  H  H113  1  0.75611000  0.60817000  0.09019200  1
  H  H114  1  0.42799800  0.84348225  0.20558600  1
  H  H115  1  0.29345400  0.90179773  0.09988000  1
  N  N116  1  0.59050600  0.72923200  0.99973635  1
  N  N117  1  0.68392500  0.35825200  0.73056950  1
  N  N118  1  0.80471183  0.68383025  0.75208775  1
  N  N119  1  0.72634125  0.18052775  0.72094150  1
  N  N120  1  0.79524875  0.74731175  0.66034150  1
  N  N121  1  0.41255050  0.75436600  0.63485400  1
  N  N122  1  0.40417800  0.82563955  0.54220550  1
  N  N123  1  0.49849950  0.31593625  0.56705500  1
  N  N124  1  0.50782450  0.13213325  0.57528400  1
  N  N125  1  0.60220400  0.73008000  0.29386200  1
  O  O126  1  0.70052100  0.91014515  0.80872425  1
  O  O127  1  0.58282075  0.96335210  0.84052175  1
  O  O128  1  0.65012550  0.78187900  0.73017250  1
  O  O129  1  0.53221950  0.70321725  0.72574225  1
  O  O130  1  0.67139125  0.87993293  0.69631400  1
  O  O131  1  0.70966000  0.65084200  0.99741776  1
  O  O132  1  0.23749800  0.68689825  0.72975350  1
  O  O133  1  0.67539775  0.87597580  0.60621175  1
  O  O134  1  0.96179697  0.78852825  0.55654600  1
  O  O135  1  0.68305600  0.93957570  0.48808600  1
  O  O136  1  0.79705000  0.88881008  0.44889200  1
  O  O137  1  0.66638525  0.78772275  0.56939975  1
  O  O138  1  0.54660150  0.71075750  0.56210175  1
  O  O139  1  0.61286225  0.64146400  0.64540975  1
  O  O140  1  0.47578600  0.60337100  0.63947400  1
  O  O141  1  0.72492200  0.65927900  0.29282600  1
  O  O142  1  0.74791400  0.52786400  0.23012200  1
  O  O143  1  0.85185985  0.58038800  0.17731600  1
  O  O144  1  0.48189400  0.80590205  0.29701200  1
  O  O145  1  0.46675400  0.79899800  0.00140600  1
  O  O146  1  0.43799350  0.92539012  0.06711800  1
  O  O147  1  0.33351200  0.86556972  0.11615400  1
  Zn  Zn148  1  0.68417175  0.78426625  0.65300800  1
  Zn  Zn149  1  0.52133775  0.70629275  0.64184825  1
