# generated using pymatgen
data_ZnH28C24N9O4
_symmetry_space_group_name_H-M   'P 1'
_cell_length_a   13.83633028
_cell_length_b   15.39792695
_cell_length_c   16.46486842
_cell_angle_alpha   93.57738714
_cell_angle_beta   91.08377376
_cell_angle_gamma   107.45622100
_symmetry_Int_Tables_number   1
_chemical_formula_structural   ZnH28C24N9O4
_chemical_formula_sum   'Zn2 H56 C48 N18 O8'
_cell_volume   3337.17394168
_cell_formula_units_Z   2
loop_
 _symmetry_equiv_pos_site_id
 _symmetry_equiv_pos_as_xyz
  1  'x, y, z'
loop_
 _atom_site_type_symbol
 _atom_site_label
 _atom_site_symmetry_multiplicity
 _atom_site_fract_x
 _atom_site_fract_y
 _atom_site_fract_z
 _atom_site_occupancy
  C  C0  1  0.67564350  0.26715600  0.38773200  1
  C  C1  1  0.79459325  0.35289125  0.49263650  1
  C  C2  1  0.87218425  0.22282825  0.49200625  1
  C  C3  1  0.91232775  0.06063158  0.48619275  1
  C  C4  1  0.00778890  0.55544175  0.16444370  1
  C  C5  1  0.00683653  0.55611400  0.25027850  1
  C  C6  1  0.10811958  0.88722625  0.31413700  1
  C  C7  1  0.02197045  0.86902925  0.42964650  1
  C  C8  1  0.08591913  0.61605675  0.12433185  1
  C  C9  1  0.07042843  0.65186775  0.38298225  1
  C  C10  1  0.16532380  0.68159150  0.25604800  1
  C  C11  1  0.08292870  0.62638675  0.29621600  1
  C  C12  1  0.14950558  0.49898525  0.44987525  1
  C  C13  1  0.16624538  0.67742250  0.17118535  1
  C  C14  1  0.07218555  0.62535650  0.04020300  1
  C  C15  1  0.22306200  0.50652075  0.01932721  1
  C  C16  1  0.89608875  0.40141300  0.24782600  1
  C  C17  1  0.99324725  0.73762600  0.03075645  1
  C  C18  1  0.95674800  0.92436350  0.42620925  1
  C  C19  1  0.80339175  0.85141825  0.34699275  1
  C  C20  1  0.81234000  0.44899525  0.49839475  1
  C  C21  1  0.95330025  0.98315200  0.49484200  1
  C  C22  1  0.10567370  0.12785882  0.62538950  1
  C  C23  1  0.01393365  0.33245825  0.66140525  1
  C  C24  1  0.87588650  0.31893575  0.50962225  1
  C  C25  1  0.97055075  0.38002150  0.53392975  1
  C  C26  1  0.02605788  0.58479200  0.86159925  1
  C  C27  1  0.05969812  0.91247975  0.57066825  1
  C  C28  1  0.04464125  0.88352650  0.71420375  1
  C  C29  1  0.00462360  0.59950575  0.78051525  1
  C  C30  1  0.06794777  0.66771175  0.64735925  1
  C  C31  1  0.61809175  0.84859675  0.57234575  1
  C  C32  1  0.20293200  0.66707500  0.84973325  1
  C  C33  1  0.14224645  0.61882600  0.98335350  1
  C  C34  1  0.12324745  0.62393625  0.89890550  1
  C  C35  1  0.18400067  0.67956850  0.76826725  1
  C  C36  1  0.40461725  0.89578900  0.51393750  1
  C  C37  1  0.49463900  0.90833675  0.51639825  1
  C  C38  1  0.29649900  0.86464200  0.51361125  1
  C  C39  1  0.59720800  0.90518950  0.52104375  1
  C  C40  1  0.08513918  0.64810650  0.73288275  1
  C  C41  1  0.99022350  0.47253050  0.51770325  1
  C  C42  1  0.69719825  0.80769325  0.55714150  1
  C  C43  1  0.75859025  0.76805525  0.54334800  1
  C  C44  1  0.83017675  0.71935825  0.52733625  1
  C  C45  1  0.69206825  0.49286575  0.56979225  1
  C  C46  1  0.85865350  0.63583150  0.76220425  1
  C  C47  1  0.00938182  0.97961050  0.56678550  1
  H  H48  1  0.59631950  0.22287300  0.37594000  1
  H  H49  1  0.72743925  0.22872900  0.36538975  1
  H  H50  1  0.68614600  0.32891000  0.35324700  1
  H  H51  1  0.85591625  0.35241300  0.29176225  1
  H  H52  1  0.96105375  0.37891650  0.22613250  1
  H  H53  1  0.07247345  0.92845750  0.28944650  1
  H  H54  1  0.06063008  0.78079150  0.00083180  1
  H  H55  1  0.13500903  0.85408475  0.26595025  1
  H  H56  1  0.17620275  0.93009875  0.35075250  1
  H  H57  1  0.22154125  0.73154225  0.28815425  1
  H  H58  1  0.27516750  0.64377525  0.05132530  1
  H  H59  1  0.22008850  0.55419400  0.43945200  1
  H  H60  1  0.10404805  0.48017725  0.39175075  1
  H  H61  1  0.17105593  0.44236925  0.46565075  1
  H  H62  1  0.22447300  0.72907875  0.14297410  1
  H  H63  1  0.29842225  0.49624050  0.02917045  1
  H  H64  1  0.17806025  0.48592500  0.07388322  1
  H  H65  1  0.64792700  0.93261975  0.47309825  1
  H  H66  1  0.84440225  0.39812400  0.19933610  1
  H  H67  1  0.91660825  0.60931675  0.04032862  1
  H  H68  1  0.99933350  0.75623625  0.09755720  1
  H  H69  1  0.81385875  0.78366275  0.35512825  1
  H  H70  1  0.98464900  0.79298675  0.31999700  1
  H  H71  1  0.94933350  0.51078000  0.13001570  1
  H  H72  1  0.94680900  0.49103000  0.34608825  1
  H  H73  1  0.76543725  0.84811750  0.28637425  1
  H  H74  1  0.66802175  0.44437575  0.45666325  1
  H  H75  1  0.75319500  0.86631150  0.39408725  1
  H  H76  1  0.92577825  0.75339025  0.00552960  1
  H  H77  1  0.88746400  0.98522450  0.34179650  1
  H  H78  1  0.11685255  0.39096625  0.57970550  1
  H  H79  1  0.07324675  0.31276800  0.69544675  1
  H  H80  1  0.17570250  0.11044258  0.60947150  1
  H  H81  1  0.12177105  0.17056330  0.68373150  1
  H  H82  1  0.08665940  0.16858672  0.57765500  1
  H  H83  1  0.00612035  0.39624450  0.69239375  1
  H  H84  1  0.68035500  0.23269800  0.50592175  1
  H  H85  1  0.94160125  0.27652050  0.66373100  1
  H  H86  1  0.95519325  0.06294080  0.64656100  1
  H  H87  1  0.04824105  0.94388875  0.74927025  1
  H  H88  1  0.06906503  0.84078525  0.75152175  1
  H  H89  1  0.56423550  0.81915900  0.61788900  1
  H  H90  1  0.17128912  0.96275625  0.65960900  1
  H  H91  1  0.13236863  0.53532150  0.57014375  1
  H  H92  1  0.27970325  0.69551375  0.87510600  1
  H  H93  1  0.18484920  0.46186425  0.96513450  1
  H  H94  1  0.24729775  0.71557100  0.73325775  1
  H  H95  1  0.66197425  0.42868900  0.59366325  1
  H  H96  1  0.63408500  0.52395150  0.56671525  1
  H  H97  1  0.75278750  0.53765800  0.61189250  1
  H  H98  1  0.86462950  0.51256850  0.78013800  1
  H  H99  1  0.77734300  0.60786325  0.74250250  1
  H  H100  1  0.96522100  0.54301000  0.89559500  1
  H  H101  1  0.86132350  0.65978125  0.82781150  1
  H  H102  1  0.89249000  0.69476100  0.72560025  1
  H  H103  1  0.96439425  0.84862475  0.69447325  1
  N  N104  1  0.69325300  0.29225800  0.47514325  1
  N  N105  1  0.95967350  0.12631335  0.43698625  1
  N  N106  1  0.93992075  0.20562425  0.43980775  1
  N  N107  1  0.04989623  0.82871250  0.35546300  1
  N  N108  1  0.23678125  0.60249125  0.00580765  1
  N  N109  1  0.98258075  0.64929000  0.01493056  1
  N  N110  1  0.90086500  0.92328925  0.35074200  1
  N  N111  1  0.93068975  0.49412400  0.28797775  1
  N  N112  1  0.72716075  0.48478150  0.49581750  1
  N  N113  1  0.04322127  0.34670125  0.57703700  1
  N  N114  1  0.02123048  0.04551975  0.63545650  1
  N  N115  1  0.82162200  0.15597977  0.53938750  1
  N  N116  1  0.84094375  0.07592130  0.53609450  1
  N  N117  1  0.06431455  0.85802100  0.50274125  1
  N  N118  1  0.11128505  0.90326750  0.64497800  1
  N  N119  1  0.09328952  0.53108300  0.51434925  1
  N  N120  1  0.91030350  0.50771025  0.50662425  1
  N  N121  1  0.90659675  0.56876550  0.74971075  1
  O  O122  1  0.14756548  0.69481925  0.43073200  1
  O  O123  1  0.24039975  0.83913600  0.44718625  1
  O  O124  1  0.98102600  0.64632525  0.40851650  1
  O  O125  1  0.81459425  0.64948425  0.47535825  1
  O  O126  1  0.13586687  0.73097675  0.61242200  1
  O  O127  1  0.24871125  0.83496675  0.57808000  1
  O  O128  1  0.98435775  0.62324000  0.60686825  1
  O  O129  1  0.91751650  0.74065375  0.56446450  1
  Zn  Zn130  1  0.13272142  0.77775475  0.51112475  1
  Zn  Zn131  1  0.94634125  0.64494275  0.50479525  1
