# generated using pymatgen
data_CuH15C22SNO7
_symmetry_space_group_name_H-M   'P 1'
_cell_length_a   26.41755686
_cell_length_b   26.98252243
_cell_length_c   29.92715936
_cell_angle_alpha   83.47118379
_cell_angle_beta   77.05127233
_cell_angle_gamma   85.70986142
_symmetry_Int_Tables_number   1
_chemical_formula_structural   CuH15C22SNO7
_chemical_formula_sum   'Cu16 H240 C352 S16 N16 O112'
_cell_volume   20628.33453137
_cell_formula_units_Z   16
loop_
 _symmetry_equiv_pos_site_id
 _symmetry_equiv_pos_as_xyz
  1  'x, y, z'
loop_
 _atom_site_type_symbol
 _atom_site_label
 _atom_site_symmetry_multiplicity
 _atom_site_fract_x
 _atom_site_fract_y
 _atom_site_fract_z
 _atom_site_occupancy
  H  H0  1  0.22583700  0.02798380  0.14223600  1
  H  H1  1  0.32034700  0.06496780  0.14094100  1
  H  H2  1  0.26852000  0.05189670  0.19063300  1
  H  H3  1  0.26604900  0.05164240  0.09645230  1
  C  C4  1  0.26171100  0.02382720  0.12748700  1
  C  C5  1  0.29495700  0.03579130  0.16049800  1
  O  O6  1  0.46991000  0.01337080  0.24780800  1
  H  H7  1  0.76602900  0.05162950  0.09645300  1
  H  H8  1  0.72580900  0.02797420  0.14224500  1
  C  C9  1  0.76167500  0.02381470  0.12748300  1
  H  H10  1  0.76848600  0.05189750  0.19061700  1
  H  H11  1  0.82031600  0.06497540  0.14092100  1
  C  C12  1  0.79490400  0.03581200  0.16046300  1
  O  O13  1  0.97107800  0.01241950  0.24805300  1
  O  O14  1  0.08218710  0.38904700  0.02396240  1
  H  H15  1  0.00486971  0.49261400  0.24400600  1
  H  H16  1  0.15110900  0.38547700  0.06556510  1
  O  O17  1  0.16636500  0.40716600  0.03786730  1
  H  H18  1  0.26858900  0.39550800  0.15655600  1
  H  H19  1  0.22025400  0.44511900  0.17910600  1
  C  C20  1  0.26102100  0.43545200  0.16191200  1
  C  C21  1  0.24752200  0.45654600  0.03908910  1
  C  C22  1  0.27638400  0.46922200  0.11567600  1
  C  C23  1  0.25400000  0.46036700  0.07702540  1
  H  H24  1  0.22581800  0.52796900  0.14223900  1
  C  C25  1  0.26168600  0.52381300  0.12747900  1
  H  H26  1  0.34469200  0.41870100  0.09086560  1
  H  H27  1  0.26880800  0.45424300  0.22933700  1
  H  H28  1  0.31962800  0.41136000  0.20319100  1
  H  H29  1  0.34917400  0.48114300  0.06382200  1
  C  C30  1  0.36755500  0.47006300  0.13221800  1
  C  C31  1  0.29430700  0.44545200  0.19583700  1
  C  C32  1  0.32918700  0.48898100  0.17541900  1
  C  C33  1  0.33597400  0.45887400  0.09752330  1
  C  C34  1  0.29492000  0.53580100  0.16046800  1
  H  H35  1  0.38909700  0.43861000  0.13996900  1
  H  H36  1  0.39469900  0.49833200  0.11410800  1
  C  C37  1  0.35158200  0.49939000  0.21380700  1
  O  O38  1  0.58221100  0.38903500  0.02394630  1
  H  H39  1  0.50490400  0.49260300  0.24403400  1
  H  H40  1  0.65111300  0.38548500  0.06555820  1
  O  O41  1  0.66639200  0.40714800  0.03785070  1
  C  C42  1  0.74752100  0.45655700  0.03908900  1
  O  O43  1  0.47112000  0.51241200  0.24805200  1
  H  H44  1  0.72025400  0.44511900  0.17911100  1
  C  C45  1  0.75399900  0.46036800  0.07702750  1
  H  H46  1  0.72581500  0.52796900  0.14224100  1
  H  H47  1  0.76859100  0.39550900  0.15656300  1
  C  C48  1  0.76102100  0.43545300  0.16191700  1
  C  C49  1  0.77638300  0.46922100  0.11567800  1
  H  H50  1  0.84469300  0.41870100  0.09087150  1
  H  H51  1  0.88909100  0.43861600  0.13997900  1
  H  H52  1  0.76880600  0.45424300  0.22934300  1
  H  H53  1  0.81963200  0.41137100  0.20319400  1
  H  H54  1  0.89470000  0.49833300  0.11411100  1
  H  H55  1  0.84917300  0.48114200  0.06382600  1
  C  C56  1  0.86754700  0.47007800  0.13223200  1
  C  C57  1  0.79430300  0.44546600  0.19584200  1
  C  C58  1  0.82913900  0.48904300  0.17542500  1
  C  C59  1  0.83597400  0.45887500  0.09752920  1
  C  C60  1  0.85148200  0.49952100  0.21381700  1
  C  C61  1  0.76168100  0.52381300  0.12747900  1
  C  C62  1  0.79489900  0.53581700  0.16046000  1
  O  O63  1  0.97109500  0.51243600  0.24803900  1
  H  H64  1  0.26603500  0.55163100  0.09645070  1
  H  H65  1  0.32032200  0.56497300  0.14092700  1
  H  H66  1  0.26849400  0.55188900  0.19061900  1
  H  H67  1  0.76603300  0.55163000  0.09645170  1
  H  H68  1  0.82031600  0.56497800  0.14092600  1
  H  H69  1  0.76848500  0.55189600  0.19061800  1
  H  H70  1  0.00486151  0.99261000  0.24401800  1
  O  O71  1  0.08207220  0.88908100  0.02394370  1
  H  H72  1  0.15106900  0.88538600  0.06554140  1
  O  O73  1  0.16616600  0.90729700  0.03794320  1
  C  C74  1  0.24749300  0.95650900  0.03910180  1
  H  H75  1  0.34468500  0.91871500  0.09085120  1
  H  H76  1  0.26879500  0.95423800  0.22931600  1
  H  H77  1  0.31961100  0.91133400  0.20317200  1
  H  H78  1  0.26859100  0.89552400  0.15652500  1
  H  H79  1  0.22025700  0.94513300  0.17908200  1
  H  H80  1  0.34917400  0.98115100  0.06380940  1
  C  C81  1  0.29430500  0.94543400  0.19582400  1
  C  C82  1  0.26102500  0.93546500  0.16189000  1
  C  C83  1  0.32922200  0.98893700  0.17545600  1
  C  C84  1  0.33597700  0.95888600  0.09751550  1
  C  C85  1  0.27639500  0.96924200  0.11566800  1
  C  C86  1  0.25399500  0.96037500  0.07702350  1
  H  H87  1  0.38912000  0.93860400  0.13994000  1
  H  H88  1  0.39469300  0.99833900  0.11410400  1
  C  C89  1  0.36756700  0.97005400  0.13221700  1
  C  C90  1  0.35162700  0.99920900  0.21393100  1
  H  H91  1  0.50359400  0.99342300  0.24320800  1
  O  O92  1  0.58179300  0.88926300  0.02395280  1
  H  H93  1  0.65099800  0.88535700  0.06541150  1
  O  O94  1  0.66592700  0.90746300  0.03789460  1
  H  H95  1  0.76858300  0.89551100  0.15656500  1
  H  H96  1  0.72024700  0.94511900  0.17911900  1
  C  C97  1  0.76101300  0.93545400  0.16192200  1
  C  C98  1  0.74737400  0.95656400  0.03914700  1
  C  C99  1  0.77636700  0.96922200  0.11568400  1
  C  C100  1  0.75393800  0.96037200  0.07705720  1
  H  H101  1  0.84467400  0.91870000  0.09086600  1
  H  H102  1  0.76880800  0.95424100  0.22934500  1
  H  H103  1  0.81963100  0.91137000  0.20319000  1
  H  H104  1  0.84915100  0.98114100  0.06382080  1
  C  C105  1  0.79430200  0.94546200  0.19584200  1
  C  C106  1  0.83595600  0.95887300  0.09752360  1
  H  H107  1  0.88908100  0.93861200  0.13997200  1
  H  H108  1  0.89469500  0.99832700  0.11410300  1
  C  C109  1  0.86754000  0.97007000  0.13222100  1
  C  C110  1  0.82916000  0.98901300  0.17542100  1
  C  C111  1  0.85152400  0.99947100  0.21381100  1
  H  H112  1  0.05030760  0.02570040  0.33021000  1
  H  H113  1  0.01025470  0.03644220  0.47359300  1
  C  C114  1  0.01465600  0.06868990  0.45236300  1
  C  C115  1  0.02837830  0.16356700  0.40528400  1
  O  O116  1  0.01845830  0.07570270  0.27682400  1
  H  H117  1  0.11526600  0.02775330  0.34922000  1
  C  C118  1  0.06053290  0.09128210  0.45001500  1
  C  C119  1  0.06805250  0.13781200  0.42575500  1
  C  C120  1  0.03312370  0.21505600  0.38828800  1
  C  C121  1  0.11360300  0.01187860  0.38191600  1
  H  H122  1  0.08824750  0.07358980  0.46693500  1
  H  H123  1  0.14379100  0.13878400  0.43612300  1
  C  C124  1  0.11887500  0.20920100  0.40746500  1
  C  C125  1  0.11401800  0.15943400  0.42404400  1
  C  C126  1  0.15763700  0.01358220  0.39764300  1
  H  H127  1  0.18828700  0.03150970  0.37343100  1
  C  C128  1  0.36354900  0.00750582  0.29796800  1
  O  O129  1  0.34025500  0.04170520  0.32454700  1
  C  C130  1  0.35694900  0.00316293  0.25230500  1
  H  H131  1  0.15390500  0.22225700  0.40689900  1
  Cu  Cu132  1  0.36885500  0.00638359  0.37559800  1
  O  O133  1  0.40325100  0.06307650  0.39684700  1
  O  O134  1  0.42233600  0.08534740  0.30495800  1
  O  O135  1  0.40323800  0.06271630  0.39684300  1
  S  S136  1  0.47200800  0.04437540  0.29255900  1
  C  C137  1  0.44068400  0.05316940  0.42070100  1
  H  H138  1  0.45835900  0.15315400  0.38635900  1
  O  O139  1  0.51846400  0.07568100  0.27645000  1
  C  C140  1  0.48534900  0.13641500  0.40326000  1
  H  H141  1  0.54974000  0.02665390  0.33068900  1
  H  H142  1  0.51067200  0.03671540  0.47450600  1
  C  C143  1  0.47868400  0.08729060  0.42556000  1
  C  C144  1  0.51507400  0.06873840  0.45294500  1
  H  H145  1  0.58877900  0.07387140  0.46722800  1
  C  C146  1  0.56101300  0.09138660  0.45027100  1
  C  C147  1  0.52877800  0.16334700  0.40519300  1
  C  C148  1  0.56851900  0.13776100  0.42567800  1
  C  C149  1  0.53343000  0.21487100  0.38809100  1
  C  C150  1  0.61920900  0.20924800  0.40717900  1
  C  C151  1  0.61448300  0.15947800  0.42378200  1
  H  H152  1  0.61509800  0.02788030  0.34920000  1
  H  H153  1  0.68808300  0.03155840  0.37340100  1
  C  C154  1  0.61335400  0.01212930  0.38195000  1
  C  C155  1  0.65738200  0.01378180  0.39767300  1
  H  H156  1  0.64430700  0.13893700  0.43586900  1
  H  H157  1  0.65417700  0.22242300  0.40663300  1
  H  H158  1  0.46197000  0.22924600  0.36420700  1
  C  C159  1  0.86330100  0.00804394  0.29777000  1
  O  O160  1  0.83951900  0.04205680  0.32437600  1
  C  C161  1  0.85695100  0.00330929  0.25214800  1
  O  O162  1  0.90270200  0.06380390  0.39638600  1
  S  S163  1  0.97217700  0.04413780  0.29263600  1
  O  O164  1  0.92219100  0.08492970  0.30416600  1
  O  O165  1  0.90269700  0.06357340  0.39638600  1
  Cu  Cu166  1  0.86845500  0.00696540  0.37545600  1
  C  C167  1  0.94011000  0.05379380  0.42024000  1
  H  H168  1  0.95788600  0.15371900  0.38639900  1
  H  H169  1  0.96171200  0.22957400  0.36429400  1
  C  C170  1  0.97823300  0.08764310  0.42516200  1
  C  C171  1  0.98491800  0.13682600  0.40317200  1
  C  C172  1  0.04240370  0.31657700  0.35527700  1
  H  H173  1  0.01844410  0.38394000  0.31700200  1
  C  C174  1  0.04803230  0.36480500  0.33444900  1
  H  H175  1  0.09359070  0.42365400  0.31796600  1
  C  C176  1  0.09166900  0.38915300  0.33577700  1
  C  C177  1  0.12146200  0.31924500  0.38376900  1
  C  C178  1  0.08117370  0.29114500  0.37704100  1
  C  C179  1  0.07792610  0.23891100  0.39178600  1
  H  H180  1  0.00887276  0.40733800  0.43686200  1
  H  H181  1  0.04411650  0.44782000  0.47574600  1
  C  C182  1  0.07756950  0.46246100  0.45168800  1
  C  C183  1  0.07425850  0.48221600  0.40733900  1
  C  C184  1  0.03336250  0.47184900  0.38891700  1
  C  C185  1  0.02504770  0.49871700  0.34881600  1
  C  C186  1  0.12783700  0.36918400  0.36309600  1
  C  C187  1  0.11359500  0.51190600  0.38191700  1
  H  H188  1  0.14603300  0.30205000  0.40595700  1
  C  C189  1  0.16578600  0.40564700  0.37188200  1
  O  O190  1  0.20632200  0.39506900  0.39189200  1
  O  O191  1  0.20633200  0.39493200  0.39187800  1
  C  C192  1  0.12601700  0.45426800  0.46176200  1
  N  N193  1  0.16679200  0.48006900  0.43277300  1
  O  O194  1  0.15855300  0.35301700  0.47157100  1
  S  S195  1  0.13200400  0.40187600  0.49869900  1
  Cu  Cu196  1  0.23892600  0.44950500  0.41697100  1
  O  O197  1  0.21700000  0.48531300  0.47086600  1
  C  C198  1  0.35682100  0.50349200  0.25215200  1
  C  C199  1  0.36332500  0.50801200  0.29776500  1
  Cu  Cu200  1  0.36852300  0.50690800  0.37543700  1
  O  O201  1  0.39002000  0.47477200  0.31881000  1
  C  C202  1  0.24477300  0.45302300  0.49207900  1
  O  O203  1  0.26434800  0.41491300  0.46852200  1
  C  C204  1  0.49455500  0.24344500  0.36856300  1
  H  H205  1  0.47069400  0.31275000  0.33764500  1
  C  C206  1  0.49905300  0.29322800  0.35246500  1
  H  H207  1  0.51840100  0.38396100  0.31701200  1
  C  C208  1  0.54802000  0.36481900  0.33441900  1
  H  H209  1  0.42447200  0.41255300  0.42020600  1
  C  C210  1  0.45209200  0.43600900  0.39799800  1
  C  C211  1  0.47862700  0.49989700  0.33683400  1
  N  N212  1  0.43962600  0.47140300  0.36477600  1
  H  H213  1  0.59356500  0.42372300  0.31790900  1
  C  C214  1  0.59165600  0.38921400  0.33571900  1
  C  C215  1  0.58130500  0.29113500  0.37688500  1
  C  C216  1  0.54247200  0.31653300  0.35519300  1
  C  C217  1  0.57818100  0.23885900  0.39155500  1
  H  H218  1  0.50887900  0.40734300  0.43687300  1
  C  C219  1  0.49967800  0.43493400  0.40997800  1
  C  C220  1  0.53335700  0.47186200  0.38893500  1
  C  C221  1  0.52503400  0.49873500  0.34884000  1
  H  H222  1  0.64607600  0.30217200  0.40588200  1
  C  C223  1  0.66580500  0.40573100  0.37181400  1
  C  C224  1  0.62785400  0.36926400  0.36301600  1
  C  C225  1  0.62152300  0.31931200  0.38366200  1
  H  H226  1  0.54412900  0.44781700  0.47575900  1
  C  C227  1  0.62602800  0.45428500  0.46176800  1
  C  C228  1  0.57757600  0.46247000  0.45170100  1
  C  C229  1  0.57425500  0.48223000  0.40735500  1
  C  C230  1  0.61358500  0.51192800  0.38193200  1
  S  S231  1  0.63203300  0.40187900  0.49868300  1
  O  O232  1  0.65860400  0.35304700  0.47152500  1
  O  O233  1  0.70632500  0.39524900  0.39185800  1
  O  O234  1  0.70633900  0.39490500  0.39181600  1
  N  N235  1  0.66679300  0.48010000  0.43278100  1
  C  C236  1  0.85714400  0.50308300  0.25212800  1
  Cu  Cu237  1  0.73893100  0.44955600  0.41695900  1
  C  C238  1  0.74477400  0.45304900  0.49207300  1
  O  O239  1  0.71701300  0.48535500  0.47086000  1
  O  O240  1  0.76434300  0.41494300  0.46850800  1
  C  C241  1  0.86336200  0.50798000  0.29775900  1
  Cu  Cu242  1  0.86851800  0.50693500  0.37543300  1
  O  O243  1  0.89000900  0.47483500  0.31886900  1
  H  H244  1  0.92447300  0.41254700  0.42018200  1
  C  C245  1  0.99967800  0.43492800  0.40996200  1
  N  N246  1  0.93962900  0.47140500  0.36476000  1
  H  H247  1  0.97068500  0.31287200  0.33756900  1
  C  C248  1  0.99432500  0.24367000  0.36869800  1
  C  C249  1  0.99895800  0.29336800  0.35251000  1
  C  C250  1  0.95209400  0.43600500  0.39797800  1
  C  C251  1  0.97863700  0.49989100  0.33681500  1
  H  H252  1  0.05031620  0.52572500  0.33021300  1
  H  H253  1  0.01027000  0.53644600  0.47361200  1
  C  C254  1  0.01466970  0.56869000  0.45237800  1
  C  C255  1  0.02838070  0.66355700  0.40528100  1
  C  C256  1  0.03311390  0.71504400  0.38828100  1
  O  O257  1  0.01847420  0.57571400  0.27681500  1
  H  H258  1  0.11528300  0.52774600  0.34920700  1
  C  C259  1  0.06805920  0.63781200  0.42575400  1
  C  C260  1  0.07791110  0.73890600  0.39177300  1
  C  C261  1  0.06054440  0.59128700  0.45002400  1
  H  H262  1  0.08826160  0.57360100  0.46694400  1
  C  C263  1  0.15760500  0.51364900  0.39766000  1
  H  H264  1  0.15389500  0.72226900  0.40688700  1
  H  H265  1  0.14379800  0.63879800  0.43611600  1
  C  C266  1  0.11886800  0.70920600  0.40745300  1
  C  C267  1  0.11402200  0.65944100  0.42403600  1
  H  H268  1  0.18826500  0.53155800  0.37344000  1
  O  O269  1  0.33956900  0.54198500  0.32441100  1
  C  C270  1  0.65759700  0.51367900  0.39767100  1
  H  H271  1  0.55029700  0.52574900  0.33023900  1
  O  O272  1  0.42218400  0.58490800  0.30416000  1
  O  O273  1  0.40272200  0.56353500  0.39637500  1
  H  H274  1  0.45788500  0.65371800  0.38640300  1
  H  H275  1  0.46170300  0.72956800  0.36430100  1
  O  O276  1  0.40272800  0.56378600  0.39637600  1
  S  S277  1  0.47219000  0.54413700  0.29263700  1
  O  O278  1  0.51845200  0.57572700  0.27683600  1
  C  C279  1  0.44012500  0.55378500  0.42024300  1
  C  C280  1  0.47823600  0.58764600  0.42516800  1
  C  C281  1  0.48491800  0.63682800  0.40317700  1
  H  H282  1  0.61527000  0.52776400  0.34922100  1
  C  C283  1  0.49431000  0.74366800  0.36871000  1
  H  H284  1  0.51025400  0.53645400  0.47360400  1
  C  C285  1  0.51465500  0.56870200  0.45237500  1
  C  C286  1  0.52837200  0.66357400  0.40529600  1
  C  C287  1  0.53310700  0.71506400  0.38831000  1
  C  C288  1  0.57789700  0.73892900  0.39182100  1
  H  H289  1  0.58824800  0.57360400  0.46694400  1
  C  C290  1  0.56053200  0.59129500  0.45002500  1
  C  C291  1  0.56805000  0.63782400  0.42576400  1
  C  C292  1  0.61885500  0.70922700  0.40749300  1
  C  C293  1  0.61401500  0.65945200  0.42405200  1
  H  H294  1  0.68825400  0.53158200  0.37344500  1
  H  H295  1  0.65388200  0.72229600  0.40692100  1
  H  H296  1  0.64379600  0.63880000  0.43611700  1
  O  O297  1  0.83953000  0.54203200  0.32435100  1
  O  O298  1  0.90274100  0.56355100  0.39637600  1
  O  O299  1  0.92220600  0.58492400  0.30417000  1
  O  O300  1  0.90274700  0.56376600  0.39637400  1
  C  C301  1  0.94014100  0.55377100  0.42024200  1
  S  S302  1  0.97220000  0.54414100  0.29262600  1
  C  C303  1  0.97825000  0.58763000  0.42516900  1
  C  C304  1  0.98492700  0.63680900  0.40317400  1
  H  H305  1  0.95789200  0.65369500  0.38640000  1
  H  H306  1  0.96169500  0.72954800  0.36429500  1
  C  C307  1  0.99430600  0.74365000  0.36869300  1
  H  H308  1  0.01839640  0.88393100  0.31699900  1
  C  C309  1  0.08114520  0.79113700  0.37702600  1
  C  C310  1  0.04236970  0.81656500  0.35526600  1
  C  C311  1  0.04798950  0.86479800  0.33444300  1
  C  C312  1  0.02502140  0.99871300  0.34882700  1
  H  H313  1  0.00885231  0.90733600  0.43686400  1
  C  C314  1  0.03334200  0.97184700  0.38892500  1
  H  H315  1  0.09354830  0.92364800  0.31795700  1
  C  C316  1  0.09162840  0.88914700  0.33577000  1
  H  H317  1  0.04411530  0.94782000  0.47574600  1
  C  C318  1  0.07425780  0.98219700  0.40733800  1
  C  C319  1  0.07757700  0.96243900  0.45168300  1
  H  H320  1  0.14600600  0.80204700  0.40593600  1
  C  C321  1  0.12780400  0.86916700  0.36308300  1
  C  C322  1  0.12142900  0.81923500  0.38375200  1
  C  C323  1  0.16578800  0.90558600  0.37187300  1
  O  O324  1  0.20629800  0.89500800  0.39191000  1
  O  O325  1  0.20631600  0.89476400  0.39188500  1
  C  C326  1  0.12603200  0.95422000  0.46174700  1
  N  N327  1  0.16682700  0.97998400  0.43274700  1
  O  O328  1  0.15859800  0.85298000  0.47163600  1
  Cu  Cu329  1  0.23897000  0.94934300  0.41698800  1
  S  S330  1  0.13198900  0.90185400  0.49871600  1
  O  O331  1  0.21707300  0.98523700  0.47082500  1
  C  C332  1  0.24477600  0.95292200  0.49209200  1
  O  O333  1  0.26428300  0.91474900  0.46859400  1
  C  C334  1  0.49895600  0.79335400  0.35249100  1
  C  C335  1  0.58113600  0.79116100  0.37707000  1
  O  O336  1  0.38996600  0.97396600  0.31905100  1
  H  H337  1  0.47069100  0.81285300  0.33753800  1
  C  C338  1  0.54240600  0.81656000  0.35524300  1
  H  H339  1  0.51854900  0.88384200  0.31680200  1
  C  C340  1  0.54807400  0.86475600  0.33434500  1
  H  H341  1  0.42479200  0.91198200  0.41937700  1
  C  C342  1  0.45237900  0.93560400  0.39736100  1
  C  C343  1  0.47875700  0.99975700  0.33639900  1
  N  N344  1  0.43989100  0.97103500  0.36422100  1
  C  C345  1  0.52495500  0.99897900  0.34871700  1
  H  H346  1  0.59355500  0.92366600  0.31796600  1
  C  C347  1  0.59163700  0.88915800  0.33576800  1
  C  C348  1  0.62137400  0.81929100  0.38384600  1
  H  H349  1  0.50858800  0.90759500  0.43690200  1
  H  H350  1  0.54376400  0.94809400  0.47576300  1
  C  C351  1  0.49967100  0.93494600  0.40973500  1
  C  C352  1  0.57397600  0.98249400  0.40736700  1
  C  C353  1  0.53323400  0.97201900  0.38881300  1
  C  C354  1  0.62773100  0.86923200  0.36316700  1
  C  C355  1  0.57725200  0.96269900  0.45171100  1
  H  H356  1  0.64589500  0.80212000  0.40609200  1
  C  C357  1  0.66555400  0.90575100  0.37203000  1
  O  O358  1  0.70617200  0.89530000  0.39194500  1
  O  O359  1  0.70618500  0.89498100  0.39190600  1
  C  C360  1  0.62570300  0.95445000  0.46178200  1
  N  N361  1  0.66651900  0.98020900  0.43280300  1
  O  O362  1  0.65822700  0.85320500  0.47157900  1
  S  S363  1  0.63165200  0.90205900  0.49870300  1
  Cu  Cu364  1  0.73870600  0.94966200  0.41702900  1
  O  O365  1  0.71674700  0.98538200  0.47098300  1
  O  O366  1  0.88995200  0.97483100  0.31886900  1
  C  C367  1  0.74456800  0.95309100  0.49214800  1
  O  O368  1  0.76416800  0.91503300  0.46853900  1
  C  C369  1  0.99964900  0.93493200  0.40997300  1
  C  C370  1  0.99892800  0.79334900  0.35250400  1
  H  H371  1  0.97064900  0.81284800  0.33756700  1
  H  H372  1  0.92443900  0.91255400  0.42020000  1
  C  C373  1  0.95205500  0.93602000  0.39799800  1
  N  N374  1  0.93958200  0.97142700  0.36478700  1
  C  C375  1  0.97860000  0.99989900  0.33683500  1
  H  H376  1  0.22583700  0.02797550  0.64223400  1
  H  H377  1  0.26851200  0.05189210  0.69062900  1
  H  H378  1  0.26605400  0.05163570  0.59645100  1
  C  C379  1  0.26170900  0.02381890  0.62748300  1
  C  C380  1  0.29494400  0.03579260  0.66049000  1
  H  H381  1  0.32034600  0.06496150  0.64094000  1
  O  O382  1  0.47007400  0.01322590  0.74784300  1
  H  H383  1  0.72580900  0.02797670  0.64224800  1
  H  H384  1  0.82031700  0.06497570  0.64092400  1
  H  H385  1  0.76848600  0.05189870  0.69061900  1
  H  H386  1  0.76603000  0.05163250  0.59645600  1
  C  C387  1  0.76167500  0.02381630  0.62748400  1
  C  C388  1  0.79489600  0.03581680  0.66045900  1
  O  O389  1  0.97106800  0.01243270  0.74804300  1
  O  O390  1  0.08211010  0.38909500  0.52395300  1
  H  H391  1  0.15108400  0.38544000  0.56553600  1
  O  O392  1  0.16626900  0.40722700  0.53788300  1
  H  H393  1  0.26882400  0.45424400  0.72933000  1
  H  H394  1  0.26858300  0.39550200  0.65655500  1
  H  H395  1  0.22025500  0.44511500  0.67910900  1
  C  C396  1  0.29431600  0.44545400  0.69582800  1
  C  C397  1  0.26102000  0.43544700  0.66191000  1
  C  C398  1  0.24748600  0.45654100  0.53909700  1
  C  C399  1  0.27637400  0.46921300  0.61566900  1
  C  C400  1  0.25397600  0.46035800  0.57702800  1
  H  H401  1  0.34467900  0.41869200  0.59084900  1
  H  H402  1  0.34915700  0.48113500  0.56380600  1
  C  C403  1  0.33596300  0.45886500  0.59750800  1
  H  H404  1  0.31964100  0.41136500  0.70318200  1
  H  H405  1  0.38909200  0.43860300  0.63994800  1
  C  C406  1  0.36755200  0.47006000  0.63219800  1
  O  O407  1  0.58214500  0.38907000  0.52393000  1
  H  H408  1  0.65109000  0.38544300  0.56553400  1
  O  O409  1  0.66629400  0.40721600  0.53787500  1
  H  H410  1  0.72025200  0.44511900  0.67910700  1
  C  C411  1  0.74748600  0.45655400  0.53909400  1
  C  C412  1  0.75397600  0.46036600  0.57702700  1
  H  H413  1  0.84467800  0.41869700  0.59085100  1
  H  H414  1  0.76881900  0.45424900  0.72932600  1
  H  H415  1  0.76858400  0.39550700  0.65655300  1
  H  H416  1  0.84915600  0.48113800  0.56380500  1
  C  C417  1  0.79431200  0.44545400  0.69582600  1
  C  C418  1  0.76101700  0.43545100  0.66190800  1
  C  C419  1  0.83596100  0.45887000  0.59750700  1
  C  C420  1  0.77637300  0.46921900  0.61566900  1
  H  H421  1  0.81963400  0.41136300  0.70317900  1
  C  C422  1  0.86755200  0.47006100  0.63219600  1
  H  H423  1  0.88909300  0.43860600  0.63994600  1
  H  H424  1  0.00501596  0.49253500  0.74410900  1
  H  H425  1  0.26849500  0.55187900  0.69060200  1
  H  H426  1  0.26602700  0.55162300  0.59643900  1
  H  H427  1  0.22581200  0.52796300  0.64223300  1
  C  C428  1  0.26167800  0.52380500  0.62746700  1
  C  C429  1  0.29491500  0.53579800  0.66044400  1
  H  H430  1  0.32032000  0.56496800  0.64090300  1
  H  H431  1  0.39470000  0.49832100  0.61408100  1
  C  C432  1  0.32918200  0.48899500  0.67539500  1
  C  C433  1  0.35156100  0.49946300  0.71377100  1
  H  H434  1  0.50500700  0.49253500  0.74411100  1
  O  O435  1  0.47121500  0.51233200  0.74808500  1
  H  H436  1  0.76849700  0.55188600  0.69060300  1
  H  H437  1  0.76602500  0.55162700  0.59644000  1
  H  H438  1  0.72581100  0.52796900  0.64223300  1
  C  C439  1  0.76167900  0.52381000  0.62746900  1
  C  C440  1  0.79491800  0.53579900  0.66044800  1
  C  C441  1  0.82918400  0.48899000  0.67539600  1
  H  H442  1  0.82031700  0.56497400  0.64090600  1
  C  C443  1  0.85155400  0.49945900  0.71377600  1
  H  H444  1  0.89469700  0.49832700  0.61408100  1
  O  O445  1  0.97122800  0.51233800  0.74807800  1
  O  O446  1  0.08208370  0.88906500  0.52393700  1
  H  H447  1  0.00484874  0.99262000  0.74400100  1
  H  H448  1  0.15107100  0.88538600  0.56554300  1
  O  O449  1  0.16617200  0.90729000  0.53794200  1
  C  C450  1  0.24750000  0.95650200  0.53909900  1
  H  H451  1  0.26859300  0.89551600  0.65652900  1
  H  H452  1  0.22025900  0.94512600  0.67908300  1
  C  C453  1  0.26102700  0.93545700  0.66189300  1
  C  C454  1  0.25400100  0.96036700  0.57702100  1
  C  C455  1  0.27639800  0.96923300  0.61566800  1
  H  H456  1  0.26879500  0.95422800  0.72932300  1
  H  H457  1  0.34469400  0.91870800  0.59085500  1
  H  H458  1  0.38911500  0.93860100  0.63995600  1
  H  H459  1  0.31961600  0.91133600  0.70317700  1
  H  H460  1  0.39470000  0.99833200  0.61411400  1
  H  H461  1  0.34918200  0.98114600  0.56381600  1
  C  C462  1  0.36756500  0.97005500  0.63222700  1
  C  C463  1  0.29430400  0.94543500  0.69582900  1
  C  C464  1  0.32920100  0.98895700  0.67545500  1
  C  C465  1  0.33598300  0.95888000  0.59752000  1
  C  C466  1  0.35158600  0.99927600  0.71391800  1
  H  H467  1  0.50378000  0.99331000  0.74331500  1
  O  O468  1  0.58175600  0.88927200  0.52394900  1
  H  H469  1  0.65098800  0.88535400  0.56539000  1
  O  O470  1  0.66588900  0.90748900  0.53788500  1
  H  H471  1  0.76880500  0.95423900  0.72934600  1
  H  H472  1  0.76858300  0.89551200  0.65656400  1
  H  H473  1  0.72024700  0.94512000  0.67911900  1
  C  C474  1  0.79430000  0.94546600  0.69584400  1
  C  C475  1  0.76101300  0.93545600  0.66192200  1
  C  C476  1  0.74735900  0.95657100  0.53915100  1
  C  C477  1  0.77636700  0.96922400  0.61568400  1
  C  C478  1  0.75393300  0.96037600  0.57705900  1
  C  C479  1  0.83595700  0.95887500  0.59752500  1
  H  H480  1  0.84467300  0.91870200  0.59086700  1
  H  H481  1  0.81963100  0.91137200  0.70319100  1
  H  H482  1  0.84915100  0.98114300  0.56382200  1
  C  C483  1  0.86753900  0.97007700  0.63222800  1
  C  C484  1  0.82912600  0.98905200  0.67542600  1
  H  H485  1  0.88908100  0.93861400  0.63997500  1
  H  H486  1  0.89469400  0.99832900  0.61410600  1
  C  C487  1  0.85142300  0.99958900  0.71382600  1
  H  H488  1  0.05031740  0.02568950  0.83019200  1
  O  O489  1  0.01845440  0.07570510  0.77682000  1
  H  H490  1  0.01026300  0.03644850  0.97360800  1
  C  C491  1  0.01466460  0.06869300  0.95237400  1
  H  H492  1  0.11526400  0.02776100  0.84921800  1
  C  C493  1  0.11359900  0.01188590  0.88191300  1
  C  C494  1  0.15763100  0.01359050  0.89764300  1
  H  H495  1  0.08825770  0.07359460  0.96694100  1
  C  C496  1  0.06054280  0.09128510  0.95002000  1
  C  C497  1  0.06806460  0.13781100  0.92575200  1
  H  H498  1  0.18828400  0.03151430  0.87343100  1
  H  H499  1  0.14380300  0.13878300  0.93612000  1
  C  C500  1  0.11403100  0.15943200  0.92403800  1
  C  C501  1  0.02839140  0.16356400  0.90527900  1
  C  C502  1  0.35694800  0.00318943  0.75228200  1
  C  C503  1  0.36349700  0.00762005  0.79793700  1
  O  O504  1  0.34011400  0.04179170  0.82452400  1
  Cu  Cu505  1  0.36879400  0.00648580  0.87557300  1
  O  O506  1  0.40316600  0.06314040  0.89677100  1
  S  S507  1  0.47203300  0.04434110  0.79256500  1
  O  O508  1  0.42231500  0.08528960  0.80483300  1
  O  O509  1  0.51846400  0.07568230  0.77649400  1
  C  C510  1  0.44060600  0.05326710  0.92061900  1
  O  O511  1  0.40316400  0.06291230  0.89677100  1
  H  H512  1  0.51061600  0.03666300  0.97435200  1
  C  C513  1  0.47862500  0.08734320  0.92549100  1
  C  C514  1  0.51501900  0.06872460  0.95284800  1
  C  C515  1  0.48529400  0.13647800  0.90324500  1
  H  H516  1  0.54984500  0.02649650  0.83059200  1
  H  H517  1  0.45829900  0.15324100  0.88636100  1
  C  C518  1  0.52872600  0.16337800  0.90521100  1
  C  C519  1  0.56094400  0.09136670  0.95023600  1
  C  C520  1  0.56845400  0.13776600  0.92569700  1
  H  H521  1  0.61513500  0.02786380  0.84919300  1
  C  C522  1  0.61339900  0.01209420  0.88193500  1
  H  H523  1  0.58869800  0.07382390  0.96719200  1
  H  H524  1  0.68811500  0.03156790  0.87341200  1
  C  C525  1  0.65742000  0.01376400  0.89766900  1
  H  H526  1  0.64423900  0.13890400  0.93590800  1
  C  C527  1  0.61442200  0.15946400  0.92382500  1
  O  O528  1  0.83947900  0.04207920  0.82436800  1
  C  C529  1  0.85719700  0.00300486  0.75213000  1
  C  C530  1  0.86330800  0.00801575  0.79777600  1
  Cu  Cu531  1  0.86846500  0.00695499  0.87545700  1
  O  O532  1  0.90272000  0.06374080  0.89638500  1
  O  O533  1  0.92218800  0.08492790  0.80417200  1
  O  O534  1  0.90272100  0.06359890  0.89638700  1
  C  C535  1  0.94012600  0.05378150  0.92024600  1
  C  C536  1  0.97824500  0.08763820  0.92516700  1
  C  C537  1  0.98493100  0.13682100  0.90317000  1
  S  S538  1  0.97217500  0.04413820  0.79263100  1
  H  H539  1  0.95790000  0.15371200  0.88639300  1
  H  H540  1  0.01842500  0.38396200  0.81704500  1
  C  C541  1  0.04240910  0.31658100  0.85528400  1
  C  C542  1  0.03313780  0.21505300  0.88828000  1
  C  C543  1  0.04802460  0.36481900  0.83447500  1
  H  H544  1  0.09357510  0.42367400  0.81799900  1
  C  C545  1  0.09166420  0.38916600  0.83579800  1
  C  C546  1  0.08118770  0.29114400  0.87703500  1
  C  C547  1  0.07794160  0.23890800  0.89177600  1
  H  H548  1  0.15392100  0.22225200  0.90689000  1
  C  C549  1  0.12785100  0.36918500  0.86309600  1
  C  C550  1  0.12148200  0.31924200  0.88375800  1
  C  C551  1  0.11889100  0.20919700  0.90745500  1
  H  H552  1  0.00888185  0.40731200  0.93689200  1
  S  S553  1  0.13207400  0.40183600  0.99869700  1
  H  H554  1  0.14606600  0.30204000  0.90593100  1
  C  C555  1  0.16581400  0.40564100  0.87187100  1
  O  O556  1  0.20635900  0.39489900  0.89186800  1
  O  O557  1  0.15861500  0.35298400  0.97155700  1
  O  O558  1  0.20634700  0.39508600  0.89188700  1
  H  H559  1  0.04416870  0.44776800  0.97577100  1
  Cu  Cu560  1  0.23895600  0.44949800  0.91696300  1
  O  O561  1  0.26439100  0.41491300  0.96851200  1
  H  H562  1  0.51839100  0.38396900  0.81705100  1
  H  H563  1  0.46194400  0.22929100  0.86422100  1
  H  H564  1  0.47070000  0.31276200  0.83764000  1
  C  C565  1  0.49453200  0.24347400  0.86858600  1
  C  C566  1  0.49904800  0.29324400  0.85247700  1
  H  H567  1  0.42443900  0.41258700  0.92027800  1
  C  C568  1  0.45206600  0.43602600  0.89805400  1
  C  C569  1  0.54246900  0.31653700  0.85521400  1
  C  C570  1  0.53339500  0.21489600  0.88812400  1
  C  C571  1  0.54801600  0.36482200  0.83444900  1
  H  H572  1  0.50888400  0.40732000  0.93689800  1
  C  C573  1  0.49966800  0.43492600  0.91001800  1
  C  C574  1  0.58130000  0.29113000  0.87690700  1
  C  C575  1  0.57815700  0.23886100  0.89158800  1
  H  H576  1  0.59355100  0.42372500  0.81795200  1
  C  C577  1  0.59165200  0.38921000  0.83575000  1
  H  H578  1  0.64610200  0.30213800  0.90587100  1
  H  H579  1  0.65415700  0.22238300  0.90665800  1
  C  C580  1  0.66582400  0.40571200  0.87181900  1
  C  C581  1  0.62786400  0.36924800  0.86303100  1
  C  C582  1  0.62153400  0.31929300  0.88366900  1
  C  C583  1  0.61917400  0.20923200  0.90721700  1
  S  S584  1  0.63209200  0.40184100  0.99868100  1
  O  O585  1  0.70636500  0.39497400  0.89182600  1
  O  O586  1  0.65863800  0.35301000  0.97151200  1
  O  O587  1  0.70634900  0.39514500  0.89184500  1
  O  O588  1  0.76438600  0.41494300  0.96850000  1
  H  H589  1  0.54417400  0.44776900  0.97577800  1
  Cu  Cu590  1  0.73895700  0.44954400  0.91695200  1
  C  C591  1  0.99966800  0.43492000  0.91001300  1
  H  H592  1  0.96172400  0.22957200  0.86429000  1
  H  H593  1  0.97069000  0.31287600  0.83757700  1
  C  C594  1  0.99433700  0.24366800  0.86869300  1
  C  C595  1  0.99896600  0.29337000  0.85251300  1
  H  H596  1  0.92443600  0.41259000  0.92027300  1
  C  C597  1  0.95206500  0.43602800  0.89805200  1
  O  O598  1  0.01848240  0.57570900  0.77687300  1
  C  C599  1  0.07428370  0.48217700  0.90736500  1
  C  C600  1  0.03336030  0.47183300  0.88896500  1
  H  H601  1  0.01022760  0.53642300  0.97351700  1
  C  C602  1  0.01462240  0.56869000  0.95231600  1
  H  H603  1  0.05028260  0.52575400  0.83030400  1
  C  C604  1  0.02502770  0.49872500  0.84888500  1
  C  C605  1  0.12606500  0.45423700  0.96177200  1
  C  C606  1  0.07761080  0.46242200  0.95171000  1
  N  N607  1  0.16682700  0.48005100  0.93278000  1
  H  H608  1  0.08820850  0.57357600  0.96689700  1
  C  C609  1  0.06049240  0.59128100  0.94998700  1
  C  C610  1  0.02832880  0.66358700  0.90528800  1
  C  C611  1  0.06800440  0.63782300  0.92575300  1
  C  C612  1  0.03307380  0.71507300  0.88830000  1
  C  C613  1  0.11882400  0.70920900  0.90748500  1
  C  C614  1  0.11396600  0.65944300  0.92405700  1
  H  H615  1  0.11532200  0.52765700  0.84919900  1
  H  H616  1  0.18828400  0.53153600  0.87344100  1
  C  C617  1  0.11362500  0.51185300  0.88192200  1
  C  C618  1  0.15763000  0.51362300  0.89766600  1
  H  H619  1  0.14373600  0.63878900  0.93613800  1
  H  H620  1  0.15385400  0.72226100  0.90692600  1
  O  O621  1  0.21703800  0.48531000  0.97085600  1
  C  C622  1  0.24481700  0.45302600  0.99206800  1
  C  C623  1  0.35681500  0.50355600  0.75211200  1
  C  C624  1  0.36331300  0.50809800  0.79772100  1
  O  O625  1  0.33953200  0.54205900  0.82438800  1
  C  C626  1  0.47861800  0.49989500  0.83687900  1
  N  N627  1  0.43960700  0.47140900  0.86481400  1
  Cu  Cu628  1  0.36850200  0.50694000  0.87540900  1
  S  S629  1  0.47222000  0.54410900  0.79265300  1
  O  O630  1  0.42221300  0.58489200  0.80411100  1
  O  O631  1  0.38999400  0.47486400  0.81875700  1
  O  O632  1  0.40268100  0.56378900  0.89634100  1
  O  O633  1  0.40268400  0.56361300  0.89634500  1
  O  O634  1  0.51848300  0.57570000  0.77686600  1
  H  H635  1  0.45782300  0.65377100  0.88642100  1
  C  C636  1  0.53335300  0.47184700  0.88897600  1
  C  C637  1  0.44007600  0.55382200  0.92021400  1
  C  C638  1  0.47818900  0.58767200  0.92514000  1
  C  C639  1  0.48486600  0.63686400  0.90317600  1
  C  C640  1  0.52501400  0.49874500  0.84890100  1
  H  H641  1  0.46167300  0.72960700  0.86430700  1
  H  H642  1  0.55025600  0.52579000  0.83033400  1
  H  H643  1  0.51022000  0.53643100  0.97352700  1
  C  C644  1  0.62606800  0.45425500  0.96177600  1
  C  C645  1  0.57761100  0.46243400  0.95171800  1
  C  C646  1  0.57427700  0.48219300  0.90737500  1
  C  C647  1  0.56048900  0.59128700  0.94999500  1
  C  C648  1  0.51461600  0.56869800  0.95232600  1
  C  C649  1  0.52832700  0.66359600  0.90530300  1
  C  C650  1  0.56800300  0.63783000  0.92576300  1
  C  C651  1  0.53307100  0.71508500  0.88832500  1
  H  H652  1  0.61530800  0.52767700  0.84920900  1
  C  C653  1  0.61361300  0.51187600  0.88193400  1
  N  N654  1  0.66682300  0.48008000  0.93278600  1
  H  H655  1  0.58820500  0.57358000  0.96690400  1
  C  C656  1  0.61881700  0.70922500  0.90751800  1
  C  C657  1  0.61396600  0.65945100  0.92406900  1
  H  H658  1  0.68827200  0.53155900  0.87344400  1
  C  C659  1  0.65761900  0.51365200  0.89767400  1
  H  H660  1  0.64374200  0.63879000  0.93613600  1
  C  C661  1  0.74481700  0.45305200  0.99206400  1
  O  O662  1  0.71704300  0.48534600  0.97085500  1
  H  H663  1  0.65384700  0.72228400  0.90695100  1
  C  C664  1  0.85686000  0.50348000  0.75211400  1
  O  O665  1  0.83954200  0.54203700  0.82438600  1
  C  C666  1  0.86331300  0.50808300  0.79772400  1
  Cu  Cu667  1  0.86851100  0.50694300  0.87540600  1
  O  O668  1  0.92220800  0.58488200  0.80410700  1
  O  O669  1  0.89001200  0.47484500  0.81875900  1
  O  O670  1  0.90268600  0.56361200  0.89633600  1
  C  C671  1  0.97862500  0.49989400  0.83687400  1
  N  N672  1  0.93961100  0.47141500  0.86481500  1
  S  S673  1  0.97222400  0.54411000  0.79265100  1
  O  O674  1  0.90268600  0.56380800  0.89633300  1
  C  C675  1  0.94007900  0.55382500  0.92020500  1
  C  C676  1  0.97819400  0.58766800  0.92513300  1
  C  C677  1  0.98486700  0.63685800  0.90316900  1
  H  H678  1  0.95782100  0.65376400  0.88641900  1
  H  H679  1  0.96166300  0.72959700  0.86430000  1
  C  C680  1  0.02502790  0.99870700  0.84881400  1
  H  H681  1  0.09356820  0.92364600  0.81795500  1
  C  C682  1  0.09164080  0.88914700  0.83577100  1
  C  C683  1  0.12142200  0.81923700  0.88376800  1
  C  C684  1  0.08112890  0.79114800  0.87704600  1
  C  C685  1  0.04236390  0.81658200  0.85527600  1
  C  C686  1  0.07787730  0.73892100  0.89179900  1
  H  H687  1  0.00885231  0.90734000  0.93686200  1
  C  C688  1  0.03334420  0.97184800  0.88891800  1
  H  H689  1  0.01841450  0.88394000  0.81698900  1
  C  C690  1  0.04799980  0.86480600  0.83444200  1
  H  H691  1  0.14599900  0.80204300  0.90595000  1
  C  C692  1  0.16579000  0.90558900  0.87187700  1
  C  C693  1  0.12780700  0.86916600  0.86309200  1
  H  H694  1  0.04410850  0.94782700  0.97574200  1
  C  C695  1  0.12602300  0.95422900  0.96174800  1
  C  C696  1  0.07757050  0.96244600  0.95168000  1
  C  C697  1  0.07425460  0.98220300  0.90733400  1
  S  S698  1  0.13197800  0.90186400  0.99872000  1
  O  O699  1  0.20630000  0.89500100  0.89191900  1
  O  O700  1  0.20630900  0.89479100  0.89189600  1
  N  N701  1  0.16681800  0.97999600  0.93275000  1
  O  O702  1  0.15857900  0.85298600  0.97164200  1
  O  O703  1  0.21705700  0.98524500  0.97083400  1
  C  C704  1  0.24476900  0.95293400  0.99209400  1
  O  O705  1  0.26428900  0.91477000  0.96858800  1
  Cu  Cu706  1  0.23895900  0.94936400  0.91699000  1
  O  O707  1  0.38995500  0.97414700  0.81901900  1
  H  H708  1  0.47068600  0.81287800  0.83753400  1
  H  H709  1  0.42475700  0.91206300  0.91950000  1
  N  N710  1  0.43984800  0.97109800  0.86430600  1
  C  C711  1  0.49428300  0.74369600  0.86872100  1
  C  C712  1  0.49894300  0.79337800  0.85249800  1
  C  C713  1  0.45234200  0.93566600  0.89745200  1
  C  C714  1  0.47873700  0.99977900  0.83646000  1
  H  H715  1  0.51854900  0.88385800  0.81681500  1
  C  C716  1  0.54807700  0.86476500  0.83435100  1
  C  C717  1  0.54239800  0.81657300  0.85525300  1
  C  C718  1  0.52497800  0.99893100  0.84871600  1
  H  H719  1  0.59358500  0.92365000  0.81794500  1
  C  C720  1  0.59165600  0.88914900  0.83575700  1
  C  C721  1  0.62137700  0.81928300  0.88384700  1
  C  C722  1  0.58112300  0.79116500  0.87708200  1
  C  C723  1  0.57786900  0.73893700  0.89183900  1
  H  H724  1  0.50865900  0.90754300  0.93687300  1
  C  C725  1  0.49968800  0.93493500  0.90975300  1
  C  C726  1  0.53326700  0.97198500  0.88881100  1
  S  S727  1  0.63169200  0.90204100  0.99870800  1
  O  O728  1  0.71678200  0.98536900  0.97096900  1
  H  H729  1  0.64590000  0.80210600  0.90608700  1
  C  C730  1  0.66559800  0.90572700  0.87200400  1
  C  C731  1  0.62775100  0.86921800  0.86315500  1
  O  O732  1  0.70619000  0.89520400  0.89194200  1
  O  O733  1  0.70620400  0.89501800  0.89191900  1
  H  H734  1  0.54381400  0.94806300  0.97574900  1
  C  C735  1  0.62574800  0.95442700  0.96177600  1
  C  C736  1  0.57730200  0.96266400  0.95169600  1
  C  C737  1  0.57403000  0.98244700  0.90734800  1
  N  N738  1  0.66656100  0.98018900  0.93279700  1
  O  O739  1  0.65826000  0.85318000  0.97159100  1
  Cu  Cu740  1  0.73873800  0.94963300  0.91702500  1
  C  C741  1  0.99965300  0.93493200  0.90996700  1
  C  C742  1  0.74459300  0.95307700  0.99214300  1
  O  O743  1  0.76419000  0.91501100  0.96854300  1
  O  O744  1  0.88993300  0.97486900  0.81889200  1
  C  C745  1  0.99427700  0.74368700  0.86870600  1
  H  H746  1  0.97065000  0.81288000  0.83755800  1
  C  C747  1  0.99891700  0.79337900  0.85250800  1
  H  H748  1  0.92444800  0.91254600  0.92018800  1
  C  C749  1  0.95206500  0.93601100  0.89798600  1
  C  C750  1  0.97860700  0.99989100  0.83682200  1
  N  N751  1  0.93959200  0.97141500  0.86477300  1
