# generated using pymatgen
data_CuH5C12NClO7
_symmetry_space_group_name_H-M   'P 1'
_cell_length_a   9.06179928
_cell_length_b   9.58429741
_cell_length_c   13.51151941
_cell_angle_alpha   91.74139195
_cell_angle_beta   105.67276607
_cell_angle_gamma   94.95328401
_symmetry_Int_Tables_number   1
_chemical_formula_structural   CuH5C12NClO7
_chemical_formula_sum   'Cu2 H10 C24 N2 Cl2 O14'
_cell_volume   1123.87297102
_cell_formula_units_Z   2
loop_
 _symmetry_equiv_pos_site_id
 _symmetry_equiv_pos_as_xyz
  1  'x, y, z'
loop_
 _atom_site_type_symbol
 _atom_site_label
 _atom_site_symmetry_multiplicity
 _atom_site_fract_x
 _atom_site_fract_y
 _atom_site_fract_z
 _atom_site_occupancy
  C  C0  1  0.10673248  0.52251633  0.05569661  1
  C  C1  1  0.77764950  0.10617052  0.58640244  1
  C  C2  1  0.62232567  0.47893167  0.04354057  1
  C  C3  1  0.80261150  0.11315985  0.50344922  1
  C  C4  1  0.83488383  0.12728480  0.40757789  1
  C  C5  1  0.85566517  0.13915790  0.32376500  1
  C  C6  1  0.86404650  0.14913468  0.22151856  1
  C  C7  1  0.86942000  0.15043432  0.13207586  1
  C  C8  1  0.76367733  0.56386800  0.02810089  1
  C  C9  1  0.07953067  0.81316383  0.09140912  1
  C  C10  1  0.59382400  0.76281083  0.01742895  1
  C  C11  1  0.74770000  0.72785133  0.02152871  1
  C  C12  1  0.10165892  0.15249045  0.94971000  1
  C  C13  1  0.76109967  0.10694577  0.67192500  1
  C  C14  1  0.98263050  0.58070567  0.97084511  1
  C  C15  1  0.75111267  0.54549333  0.84908978  1
  C  C16  1  0.81361400  0.49262683  0.75968122  1
  C  C17  1  0.76041633  0.12109082  0.76783533  1
  C  C18  1  0.54126867  0.12986388  0.93678533  1
  C  C19  1  0.38630867  0.13646825  0.94122444  1
  C  C20  1  0.25647282  0.14548225  0.94506700  1
  C  C21  1  0.97925950  0.74669750  0.98678033  1
  C  C22  1  0.74309600  0.71514283  0.84560167  1
  C  C23  1  0.82875983  0.77631117  0.76842056  1
  Cl  Cl24  1  0.55810367  0.45178967  0.81069778  1
  Cl  Cl25  1  0.57665350  0.75274350  0.79831622  1
  Cu  Cu26  1  0.83978633  0.30297150  0.95095122  1
  Cu  Cu27  1  0.80950217  0.98893383  0.95342378  1
  H  H28  1  0.21857957  0.51249133  0.04215986  1
  H  H29  1  0.84496233  0.55578633  0.10508457  1
  H  H30  1  0.03324653  0.86605767  0.14655539  1
  H  H31  1  0.80913750  0.77159000  0.10022311  1
  H  H32  1  0.03698385  0.57032250  0.90734922  1
  H  H33  1  0.50924033  0.48070383  0.99048211  1
  H  H34  1  0.92874933  0.46138833  0.77125411  1
  H  H35  1  0.04491510  0.79278100  0.93631767  1
  H  H36  1  0.93563917  0.84273450  0.79239889  1
  H  H37  1  0.49284267  0.71461700  0.96016089  1
  N  N38  1  0.83586100  0.50843917  0.94635600  1
  N  N39  1  0.81250467  0.78452367  0.95523267  1
  O  O40  1  0.09316618  0.50038267  0.14132742  1
  O  O41  1  0.63225283  0.40974883  0.11919011  1
  O  O42  1  0.89252383  0.27145430  0.09347058  1
  O  O43  1  0.83238983  0.03093197  0.07627287  1
  O  O44  1  0.21938065  0.81188483  0.11418059  1
  O  O45  1  0.56956700  0.84056783  0.08875179  1
  O  O46  1  0.04578465  0.27409245  0.94884000  1
  O  O47  1  0.01998407  0.03448277  0.95312133  1
  O  O48  1  0.73232750  0.48175917  0.67067589  1
  O  O49  1  0.80270000  0.24399193  0.81267289  1
  O  O50  1  0.59683300  0.00935971  0.93595811  1
  O  O51  1  0.62718767  0.24746842  0.94231000  1
  O  O52  1  0.74832533  0.01158554  0.82064756  1
  O  O53  1  0.77360967  0.75820017  0.67505456  1
