# generated using pymatgen
data_Cu6H32C62I2N7O29
_symmetry_space_group_name_H-M   'P 1'
_cell_length_a   17.68487618
_cell_length_b   17.75877953
_cell_length_c   23.65176288
_cell_angle_alpha   90.97670167
_cell_angle_beta   91.54344226
_cell_angle_gamma   100.22879217
_symmetry_Int_Tables_number   1
_chemical_formula_structural   Cu6H32C62I2N7O29
_chemical_formula_sum   'Cu6 H32 C62 I2 N7 O29'
_cell_volume   7305.60546421
_cell_formula_units_Z   1
loop_
 _symmetry_equiv_pos_site_id
 _symmetry_equiv_pos_as_xyz
  1  'x, y, z'
loop_
 _atom_site_type_symbol
 _atom_site_label
 _atom_site_symmetry_multiplicity
 _atom_site_fract_x
 _atom_site_fract_y
 _atom_site_fract_z
 _atom_site_occupancy
  C  C0  1  0.60352800  0.20922200  0.03144760  1
  C  C1  1  0.65423600  0.25923800  0.01675983  1
  C  C2  1  0.44349350  0.01294831  0.15503820  1
  C  C3  1  0.33413000  0.16607735  0.02627475  1
  C  C4  1  0.54018400  0.14869433  0.04185170  1
  C  C5  1  0.22637100  0.32054200  0.02770965  1
  C  C6  1  0.29047700  0.38041300  0.02892995  1
  C  C7  1  0.32160900  0.53044000  0.16508760  1
  C  C8  1  0.29561000  0.44151800  0.06868900  1
  C  C9  1  0.41908900  0.58947800  0.23399800  1
  C  C10  1  0.34080000  0.56607800  0.21901300  1
  C  C11  1  0.28573200  0.57375800  0.26061550  1
  C  C12  1  0.23561000  0.24611400  0.01298424  1
  C  C13  1  0.35648250  0.36803200  0.00029695  1
  C  C14  1  0.47156900  0.97621000  0.19756190  1
  C  C15  1  0.45049000  0.98964350  0.25678200  1
  C  C16  1  0.19284300  0.84241250  0.07442580  1
  C  C17  1  0.31290600  0.95315800  0.01813201  1
  C  C18  1  0.17290600  0.88081350  0.02970575  1
  C  C19  1  0.02830700  0.86405500  0.00375438  1
  C  C20  1  0.68637500  0.80736100  0.55757750  1
  C  C21  1  0.44272100  0.61928600  0.28738200  1
  C  C22  1  0.30995600  0.60545600  0.31510000  1
  C  C23  1  0.38937750  0.63117400  0.32819000  1
  C  C24  1  0.47215200  0.94978400  0.29990800  1
  C  C25  1  0.54725550  0.80255400  0.53638100  1
  C  C26  1  0.41579100  0.67469250  0.37467750  1
  C  C27  1  0.44443200  0.90818200  0.39726200  1
  C  C28  1  0.44127600  0.95909800  0.35678100  1
  C  C29  1  0.31044000  0.82278000  0.55035800  1
  C  C30  1  0.85193980  0.73886800  0.77785000  1
  C  C31  1  0.73464500  0.78712000  0.65198400  1
  C  C32  1  0.74724200  0.80138850  0.59481100  1
  C  C33  1  0.79606200  0.77737200  0.68795400  1
  C  C34  1  0.78528200  0.75929600  0.74525600  1
  C  C35  1  0.71091600  0.75624100  0.76708000  1
  C  C36  1  0.64946800  0.76676500  0.73092000  1
  C  C37  1  0.66004000  0.78053600  0.67298800  1
  C  C38  1  0.61081550  0.79873900  0.57719250  1
  C  C39  1  0.59729600  0.78569850  0.63568000  1
  C  C40  1  0.25269000  0.81086800  0.58600600  1
  C  C41  1  0.21024800  0.73467400  0.60169800  1
  C  C42  1  0.13484400  0.59280600  0.65973800  1
  C  C43  1  0.07494600  0.67908900  0.71697200  1
  C  C44  1  0.15654800  0.73355400  0.64438400  1
  C  C45  1  0.12073950  0.66863000  0.67379950  1
  C  C46  1  0.71032800  0.31739600  0.99474800  1
  C  C47  1  0.84043818  0.48400625  0.92606000  1
  C  C48  1  0.87826595  0.55466000  0.90274400  1
  C  C49  1  0.80337800  0.42877600  0.94766400  1
  C  C50  1  0.75504800  0.36770400  0.97361600  1
  C  C51  1  0.30849200  0.23149000  0.99912200  1
  C  C52  1  0.36547200  0.29340350  0.98562600  1
  C  C53  1  0.24224400  0.90434400  0.99003000  1
  C  C54  1  0.26165700  0.83077000  0.96148050  1
  C  C55  1  0.21449000  0.95333525  0.94246200  1
  C  C56  1  0.18924400  0.78408000  0.93046000  1
  C  C57  1  0.06175000  0.77481100  0.89314200  1
  C  C58  1  0.10282550  0.83170600  0.99469600  1
  C  C59  1  0.15143800  0.90414600  0.90395500  1
  C  C60  1  0.12481600  0.82275400  0.93056800  1
  C  C61  1  0.08719400  0.94941200  0.88767000  1
  Cu  Cu62  1  0.43110400  0.04775970  0.02736560  1
  Cu  Cu63  1  0.38247800  0.09102533  0.09451570  1
  Cu  Cu64  1  0.40787400  0.84578400  0.50020650  1
  Cu  Cu65  1  0.46494500  0.76867900  0.43267200  1
  Cu  Cu66  1  0.00704750  0.71191000  0.78350800  1
  Cu  Cu67  1  0.92626945  0.66752000  0.86527800  1
  H  H68  1  0.41339800  0.03108983  0.26524400  1
  H  H69  1  0.19221600  0.20153400  0.02123400  1
  H  H70  1  0.17258100  0.32840600  0.04580615  1
  H  H71  1  0.46129100  0.58377100  0.20622050  1
  H  H72  1  0.50922350  0.93553800  0.18862180  1
  H  H73  1  0.15677200  0.93434700  0.04690420  1
  H  H74  1  0.00451200  0.84488300  0.04510575  1
  H  H75  1  0.03866000  0.92742250  0.00564403  1
  H  H76  1  0.08977550  0.77223500  0.01118364  1
  H  H77  1  0.40726000  0.00373129  0.36365900  1
  H  H78  1  0.50077400  0.63543200  0.29500850  1
  H  H79  1  0.50773000  0.90679350  0.29229000  1
  H  H80  1  0.80488350  0.80746400  0.57891500  1
  H  H81  1  0.85246165  0.78120450  0.67015800  1
  H  H82  1  0.60115450  0.76353900  0.74563600  1
  H  H83  1  0.22457300  0.68512200  0.58560400  1
  H  H84  1  0.24229400  0.85611400  0.60727000  1
  H  H85  1  0.48463600  0.76420200  0.62707400  1
  H  H86  1  0.14504400  0.78945200  0.65746000  1
  H  H87  1  0.98789952  0.84569900  0.97350200  1
  H  H88  1  0.42162200  0.28362400  0.97342600  1
  H  H89  1  0.40296700  0.41117000  0.99708400  1
  H  H90  1  0.20556800  0.77133200  0.88651500  1
  H  H91  1  0.28424350  0.79434800  0.99338250  1
  H  H92  1  0.30761800  0.84608800  0.93030850  1
  H  H93  1  0.26331200  0.97806000  0.91576800  1
  H  H94  1  0.19346600  0.00316415  0.96190400  1
  H  H95  1  0.17479150  0.72695100  0.95039850  1
  H  H96  1  0.17890250  0.89468400  0.86310650  1
  H  H97  1  0.03836400  0.91288600  0.86459600  1
  H  H98  1  0.06511200  0.97668950  0.92455800  1
  H  H99  1  0.10854700  0.99222000  0.86193800  1
  I  I100  1  0.71414200  0.83301800  0.47227550  1
  I  I101  1  0.68369900  0.73702950  0.85331400  1
  N  N102  1  0.25138300  0.48726050  0.15300760  1
  N  N103  1  0.23872600  0.44367000  0.10603690  1
  N  N104  1  0.36390800  0.48900800  0.07876780  1
  N  N105  1  0.37650900  0.53223000  0.12570995  1
  N  N106  1  0.20502500  0.55215600  0.24775500  1
  N  N107  1  0.21129900  0.80706700  0.11536485  1
  N  N108  1  0.25320600  0.61213600  0.35620600  1
  O  O109  1  0.32391200  0.16075607  0.08064620  1
  O  O110  1  0.39781000  0.06107785  0.16565040  1
  O  O111  1  0.52756450  0.08984870  0.00692031  1
  O  O112  1  0.48716800  0.15745763  0.07950580  1
  O  O113  1  0.37922000  0.12302640  0.00075968  1
  O  O114  1  0.30656600  0.00097931  0.06113000  1
  O  O115  1  0.46137400  0.00151393  0.10145240  1
  O  O116  1  0.17205750  0.59021200  0.21080800  1
  O  O117  1  0.16309400  0.50025750  0.27723300  1
  O  O118  1  0.25305600  0.57533200  0.40330350  1
  O  O119  1  0.19872950  0.65071150  0.34513350  1
  O  O120  1  0.48950200  0.70407800  0.38193000  1
  O  O121  1  0.33016000  0.76948400  0.51654200  1
  O  O122  1  0.53654400  0.75575450  0.49206800  1
  O  O123  1  0.37118200  0.70113050  0.41186350  1
  O  O124  1  0.48396800  0.85291250  0.39046300  1
  O  O125  1  0.40368200  0.91086400  0.44259800  1
  O  O126  1  0.35450400  0.89088600  0.54824600  1
  O  O127  1  0.50109200  0.85190900  0.54461100  1
  O  O128  1  0.84512985  0.70999800  0.82856950  1
  O  O129  1  0.91761980  0.74336100  0.75258000  1
  O  O130  1  0.52442600  0.77550200  0.65767800  1
  O  O131  1  0.04065200  0.62370300  0.75008600  1
  O  O132  1  0.06153850  0.74767200  0.73029200  1
  O  O133  1  0.07167200  0.77405600  0.83835400  1
  O  O134  1  0.92344890  0.55919600  0.85852450  1
  O  O135  1  0.86506595  0.62053000  0.92288200  1
  O  O136  1  0.37753400  0.96218800  0.99153000  1
  O  O137  1  0.00203600  0.73044750  0.91415600  1
