# generated using pymatgen
data_ZnH35C35I(NO3)2
_symmetry_space_group_name_H-M   'P 1'
_cell_length_a   12.48600913
_cell_length_b   12.93418669
_cell_length_c   15.48938439
_cell_angle_alpha   87.39755492
_cell_angle_beta   85.48726649
_cell_angle_gamma   82.14909302
_symmetry_Int_Tables_number   1
_chemical_formula_structural   ZnH35C35I(NO3)2
_chemical_formula_sum   'Zn2 H70 C70 I2 N4 O12'
_cell_volume   2468.82870763
_cell_formula_units_Z   2
loop_
 _symmetry_equiv_pos_site_id
 _symmetry_equiv_pos_as_xyz
  1  'x, y, z'
loop_
 _atom_site_type_symbol
 _atom_site_label
 _atom_site_symmetry_multiplicity
 _atom_site_fract_x
 _atom_site_fract_y
 _atom_site_fract_z
 _atom_site_occupancy
  C  C0  1  0.82283045  0.75911900  0.27934200  1
  C  C1  1  0.96995982  0.74484600  0.07216795  1
  C  C2  1  0.85535345  0.96180300  0.11196000  1
  C  C3  1  0.82726472  0.74852600  0.43923100  1
  C  C4  1  0.81611200  0.68851300  0.36033100  1
  C  C5  1  0.79947405  0.39534450  0.42457600  1
  C  C6  1  0.80429063  0.43865550  0.26997000  1
  C  C7  1  0.74302083  0.81594795  0.47879500  1
  C  C8  1  0.68670975  0.42931700  0.43141000  1
  C  C9  1  0.69345450  0.47535150  0.27785500  1
  C  C10  1  0.62459150  0.81011650  0.46312600  1
  C  C11  1  0.85847258  0.39843700  0.34299000  1
  C  C12  1  0.17908275  0.78472100  0.06085400  1
  C  C13  1  0.13717150  0.68809300  0.02635075  1
  C  C14  1  0.12559800  0.77290900  0.40657200  1
  C  C15  1  0.13841125  0.77804600  0.31337900  1
  C  C16  1  0.10669750  0.77135300  0.14520270  1
  C  C17  1  0.13174450  0.77716600  0.23601500  1
  C  C18  1  0.63473700  0.47011500  0.35809600  1
  C  C19  1  0.08268450  0.85581220  0.02144100  1
  C  C20  1  0.04264400  0.43454200  0.32031600  1
  C  C21  1  0.06617525  0.67358400  0.11113320  1
  C  C22  1  0.01176600  0.84126635  0.10595195  1
  C  C23  1  0.80205258  0.06292050  0.15418310  1
  C  C24  1  0.55495925  0.09436400  0.48406100  1
  C  C25  1  0.65920200  0.04043500  0.47025400  1
  C  C26  1  0.22226550  0.05164500  0.37585000  1
  C  C27  1  0.69648575  0.10755150  0.11427600  1
  C  C28  1  0.13952475  0.06532000  0.30786200  1
  C  C29  1  0.91865690  0.50734700  0.54260300  1
  C  C30  1  0.88727313  0.41020400  0.56358800  1
  C  C31  1  0.77386815  0.88712310  0.53530800  1
  C  C32  1  0.87199642  0.86126155  0.57574800  1
  C  C33  1  0.95515225  0.78067300  0.54454800  1
  C  C34  1  0.99249916  0.75278350  0.82358600  1
  C  C35  1  0.98664649  0.76518850  0.73145500  1
  C  C36  1  0.71039087  0.99316921  0.54254350  1
  C  C37  1  0.92141075  0.36366400  0.64131200  1
  C  C38  1  0.37591575  0.99017249  0.65729300  1
  C  C39  1  0.58645750  0.71109700  0.50593700  1
  C  C40  1  0.45117025  0.95542020  0.73039300  1
  C  C41  1  0.53445050  0.86146915  0.70599200  1
  C  C42  1  0.15693550  0.68248550  0.59307000  1
  C  C43  1  0.27054075  0.69862500  0.55308200  1
  C  C44  1  0.04184900  0.75785900  0.98781700  1
  C  C45  1  0.35775350  0.65733100  0.90861600  1
  C  C46  1  0.48124775  0.64652400  0.90904000  1
  C  C47  1  0.27836950  0.94290290  0.65427100  1
  C  C48  1  0.24647425  0.87218450  0.72293100  1
  C  C49  1  0.18962100  0.92532960  0.79282000  1
  C  C50  1  0.01005125  0.75156300  0.89912200  1
  C  C51  1  0.30716400  0.59469700  0.98434100  1
  C  C52  1  0.86988367  0.23906600  0.51254200  1
  C  C53  1  0.85276410  0.34831200  0.50146450  1
  C  C54  1  0.96693142  0.08639200  0.58198200  1
  C  C55  1  0.72111565  0.24337700  0.82981600  1
  C  C56  1  0.92093265  0.19149000  0.58469400  1
  C  C57  1  0.97532041  0.21516750  0.73345900  1
  C  C58  1  0.90569637  0.16837550  0.79671200  1
  C  C59  1  0.94495225  0.13290150  0.87663000  1
  C  C60  1  0.93763563  0.25531950  0.65378800  1
  C  C61  1  0.32336850  0.09555000  0.52984500  1
  C  C62  1  0.23726125  0.03851400  0.52294000  1
  C  C63  1  0.11640900  0.19501500  0.83549700  1
  C  C64  1  0.08072750  0.22961250  0.75461100  1
  C  C65  1  0.39939375  0.06784300  0.59115500  1
  C  C66  1  0.68162275  0.03947500  0.62264400  1
  C  C67  1  0.58338650  0.10620000  0.63283700  1
  C  C68  1  0.50887925  0.10464100  0.57001700  1
  C  C69  1  0.04905600  0.14668700  0.89603700  1
  H  H70  1  0.90207820  0.78929200  0.27257000  1
  H  H71  1  0.89681975  0.73172850  0.07557090  1
  H  H72  1  0.87260310  0.97911120  0.04160325  1
  H  H73  1  0.81495465  0.71351000  0.22187300  1
  H  H74  1  0.87682858  0.62864000  0.35487700  1
  H  H75  1  0.74536305  0.65951400  0.36395700  1
  H  H76  1  0.75704390  0.82634175  0.28203700  1
  H  H77  1  0.79750243  0.90320320  0.12110865  1
  H  H78  1  0.84592305  0.44057200  0.21033550  1
  H  H79  1  0.63619475  0.63990150  0.48129550  1
  H  H80  1  0.61417400  0.81056615  0.39268400  1
  H  H81  1  0.33122200  0.61644400  0.04813690  1
  H  H82  1  0.25636500  0.80009715  0.05743670  1
  H  H83  1  0.26912475  0.97188235  0.37088400  1
  H  H84  1  0.29029700  0.65683000  0.49161300  1
  H  H85  1  0.65471475  0.50479600  0.22440000  1
  H  H86  1  0.55297900  0.49518200  0.36279750  1
  H  H87  1  0.56780075  0.87594185  0.49018100  1
  H  H88  1  0.12851750  0.39735950  0.31762300  1
  H  H89  1  0.50083950  0.70817750  0.49271150  1
  H  H90  1  0.02954775  0.47731600  0.26194300  1
  H  H91  1  0.02964875  0.48876000  0.37446900  1
  H  H92  1  0.06192925  0.59788000  0.14714820  1
  H  H93  1  0.84979220  0.19158300  0.46186150  1
  H  H94  1  0.98356371  0.30744000  0.27898900  1
  H  H95  1  0.85904940  0.12224150  0.14611285  1
  H  H96  1  0.78398535  0.04700500  0.22460250  1
  H  H97  1  0.33359700  0.16000500  0.48396800  1
  H  H98  1  0.17495375  0.05209500  0.25232600  1
  H  H99  1  0.63671050  0.05098600  0.12330210  1
  H  H100  1  0.68621850  0.01820900  0.40878200  1
  H  H101  1  0.50598350  0.10693800  0.42899800  1
  H  H102  1  0.27803425  0.11120800  0.36035800  1
  H  H103  1  0.66074875  0.18082450  0.14634810  1
  H  H104  1  0.71225658  0.12611300  0.04410000  1
  H  H105  1  0.09702575  0.14644900  0.30775150  1
  H  H106  1  0.07866250  0.01070400  0.32232500  1
  H  H107  1  0.88118098  0.91249555  0.62558500  1
  H  H108  1  0.94067980  0.41003100  0.68838850  1
  H  H109  1  0.59728150  0.84853065  0.75368300  1
  H  H110  1  0.57466450  0.87407260  0.64132300  1
  H  H111  1  0.27836575  0.78176200  0.53950100  1
  H  H112  1  0.59177275  0.70950300  0.57702400  1
  H  H113  1  0.49538075  0.78949100  0.70540350  1
  H  H114  1  0.40785250  0.93291195  0.79169600  1
  H  H115  1  0.14571700  0.60405800  0.57737900  1
  H  H116  1  0.33322500  0.66575250  0.59762900  1
  H  H117  1  0.33655750  0.62888300  0.84637900  1
  H  H118  1  0.32455400  0.74131450  0.91191100  1
  H  H119  1  0.51479450  0.69315650  0.85387750  1
  H  H120  1  0.51746650  0.56354900  0.90267000  1
  H  H121  1  0.16445450  0.67468250  0.66372900  1
  H  H122  1  0.17358550  0.87190205  0.84367300  1
  H  H123  1  0.20100100  0.82412710  0.70078600  1
  H  H124  1  0.31605675  0.81994365  0.74757400  1
  H  H125  1  0.08659950  0.93147860  0.98525300  1
  H  H126  1  0.23552025  0.98309704  0.81864800  1
  H  H127  1  0.11120175  0.96886310  0.77520000  1
  H  H128  1  0.34081375  0.51090300  0.97815700  1
  H  H129  1  0.50474900  0.67595400  0.97007550  1
  H  H130  1  0.73865313  0.32205100  0.80539300  1
  H  H131  1  0.77764718  0.16849000  0.71907450  1
  H  H132  1  0.72509693  0.01372000  0.67895400  1
  H  H133  1  0.89284390  0.09698600  0.92488800  1
  H  H134  1  0.72914058  0.23517100  0.90077400  1
  H  H135  1  0.63551425  0.23647350  0.81877600  1
  H  H136  1  0.19703100  0.20555500  0.85150000  1
  H  H137  1  0.07465475  0.12303050  0.95287300  1
  H  H138  1  0.48901875  0.01526900  0.75065500  1
  H  H139  1  0.55829700  0.14178700  0.69417650  1
  I  I140  1  0.58914800  0.41323500  0.54930200  1
  I  I141  1  0.19233950  0.30096300  0.66737700  1
  N  N142  1  0.92661698  0.74081400  0.47000800  1
  N  N143  1  0.97100582  0.35361300  0.33359900  1
  N  N144  1  0.21433675  0.96475550  0.58515000  1
  N  N145  1  0.79339558  0.16131450  0.78418100  1
  O  O146  1  0.95163475  0.92465510  0.15223730  1
  O  O147  1  0.11342450  0.86466550  0.44971200  1
  O  O148  1  0.09367925  0.68156350  0.44079300  1
  O  O149  1  0.16668125  0.06557000  0.45863200  1
  O  O150  1  0.85334295  0.59455000  0.55488200  1
  O  O151  1  0.97114755  0.68365800  0.68475300  1
  O  O152  1  0.07197000  0.76915550  0.57175800  1
  O  O153  1  0.19348950  0.60240550  0.98022450  1
  O  O154  1  0.02144575  0.85241660  0.69604300  1
  O  O155  1  0.02204200  0.51773300  0.53612100  1
  O  O156  1  0.96421338  0.02482600  0.51804200  1
  O  O157  1  0.03008750  0.04335100  0.63881800  1
  Zn  Zn158  1  0.98126948  0.65909900  0.54845900  1
  Zn  Zn159  1  0.06740150  0.92361145  0.57682700  1
